COC(=O)c1ccc(NO)cc1
 OpenBabel03122003513D

 12 12  0  0  0  0  0  0  0  0999 V2000
    6.2565   -0.7456   19.5647 C   0  0  0  0  0  0  0  0  0  0  0  0
    7.5400   -0.8788   20.1791 O   0  0  0  0  0  0  0  0  0  0  0  0
    8.1227    0.2996   20.5083 C   0  0  0  0  0  0  0  0  0  0  0  0
    7.6328    1.4083   20.3536 O   0  0  0  0  0  0  0  0  0  0  0  0
    9.4726    0.0711   21.0928 C   0  0  0  0  0  0  0  0  0  0  0  0
   10.2703    1.1867   21.3751 C   0  0  0  0  0  0  0  0  0  0  0  0
   11.5533    1.0204   21.9100 C   0  0  0  0  0  0  0  0  0  0  0  0
   12.0467   -0.2552   22.2066 C   0  0  0  0  0  0  0  0  0  0  0  0
   13.3659   -0.4005   22.6939 N   0  0  0  0  0  0  0  0  0  0  0  0
   14.0666    0.7438   23.0817 O   0  0  0  0  0  0  0  0  0  0  0  0
   11.2545   -1.3672   21.8964 C   0  0  0  0  0  0  0  0  0  0  0  0
    9.9743   -1.2091   21.3504 C   0  0  0  0  0  0  0  0  0  0  0  0
  1  2  1  0  0  0  0
  2  3  1  0  0  0  0
  3  4  2  0  0  0  0
  3  5  1  0  0  0  0
  5  6  2  0  0  0  0
  5 12  1  0  0  0  0
  6  7  1  0  0  0  0
  7  8  2  0  0  0  0
  8  9  1  0  0  0  0
  8 11  1  0  0  0  0
  9 10  1  0  0  0  0
 11 12  2  0  0  0  0
M  END
>  <CHROM.1>
1.91371207,174.11484200,10.72395671,10.08557649,0.00081175,21.33085589,-3.09327712
-0.41153045,0.00663509

>  <Name>
COC(=O)c1ccc(NO)cc1

>  <RI>
0

>  <Rbt.Current_Directory>
/home/gse84885/github/im/docking-validation/targets/mpro/expts/jackall/work/Mpro-x0072_0/work/ec/25b0badee36ea0d4973e475deac79c

>  <Rbt.Executable>
rbdock ($Id: //depot/dev/client3/rdock/2013.1/src/exe/rbdock.cxx#4 $)

>  <Rbt.Library>
libRbt.so (2013.1, Build901 2013/11/27)

>  <Rbt.Parameter_File>
/rDock_2013.1/data/scripts/dock.prm

>  <Rbt.Receptor>
docking-global.prm

>  <SCORE>
-4.1783

>  <SCORE.INTER>
-3.81915

>  <SCORE.INTER.CONST>
1

>  <SCORE.INTER.POLAR>
0

>  <SCORE.INTER.REPUL>
0

>  <SCORE.INTER.ROT>
3

>  <SCORE.INTER.VDW>
-12.2192

>  <SCORE.INTER.norm>
-0.318263

>  <SCORE.INTRA>
-0.359145

>  <SCORE.INTRA.DIHEDRAL>
-1.07102

>  <SCORE.INTRA.DIHEDRAL.0>
1.34512

>  <SCORE.INTRA.POLAR>
0

>  <SCORE.INTRA.POLAR.0>
0

>  <SCORE.INTRA.REPUL>
0

>  <SCORE.INTRA.REPUL.0>
0

>  <SCORE.INTRA.VDW>
0.176368

>  <SCORE.INTRA.VDW.0>
1.83539

>  <SCORE.INTRA.norm>
-0.0299287

>  <SCORE.RESTR>
0

>  <SCORE.RESTR.CAVITY>
0

>  <SCORE.RESTR.norm>
0

>  <SCORE.SYSTEM>
0

>  <SCORE.SYSTEM.CONST>
0

>  <SCORE.SYSTEM.DIHEDRAL>
0

>  <SCORE.SYSTEM.norm>
0

>  <SCORE.heavy>
12

>  <SCORE.norm>
-0.348191

>  <XChemDeepScore>
0.986727

>  <SuCOS_Max_Score>
0.27075244909599

>  <SuCOS_Max_FeatureMap_Score>
0.00856077809189657

>  <SuCOS_Max_Protrude_Score>
0.53294412010008341

>  <SuCOS_Max_Index>
5

>  <SuCOS_Cum_Score>
1.2048795803140162

>  <SuCOS_Cum_FeatureMap_Score>
0.039776504320892414

>  <SuCOS_Cum_Protrude_Score>
2.3699826563071396

$$$$
