CCCC(NS(=O)(=O)c1ccccc1)C(=N)N
 OpenBabel03122003513D

 17 17  0  0  0  0  0  0  0  0999 V2000
    8.5309    5.2533   23.2200 C   0  0  0  0  0  0  0  0  0  0  0  0
    9.8840    4.9778   23.8535 C   0  0  0  0  0  0  0  0  0  0  0  0
   10.7090    3.9128   23.1247 C   0  0  0  0  0  0  0  0  0  0  0  0
   12.1100    3.6232   23.6982 C   0  0  1  0  0  0  0  0  0  0  0  0
   12.9073    2.6471   22.9372 N   0  0  0  0  0  0  0  0  0  0  0  0
   13.0220    1.1468   23.4713 S   0  0  0  0  0  0  0  0  0  0  0  0
   14.2557    0.4800   23.0553 O   0  0  0  0  0  0  0  0  0  0  0  0
   12.6633    0.9104   24.8657 O   0  0  0  0  0  0  0  0  0  0  0  0
   11.7769    0.1890   22.5657 C   0  0  0  0  0  0  0  0  0  0  0  0
   10.8372    0.8695   21.7884 C   0  0  0  0  0  0  0  0  0  0  0  0
    9.8119    0.1497   21.1782 C   0  0  0  0  0  0  0  0  0  0  0  0
    9.7317   -1.2356   21.3492 C   0  0  0  0  0  0  0  0  0  0  0  0
   10.6948   -1.9094   22.1034 C   0  0  0  0  0  0  0  0  0  0  0  0
   11.7358   -1.1992   22.6976 C   0  0  0  0  0  0  0  0  0  0  0  0
   12.9357    4.8655   24.0369 C   0  0  0  0  0  0  0  0  0  0  0  0
   13.0052    5.4038   25.2180 N   0  0  0  0  0  0  0  0  0  0  0  0
   13.6320    5.4718   23.0325 N   0  0  0  0  0  0  0  0  0  0  0  0
  1  2  1  0  0  0  0
  2  3  1  0  0  0  0
  4  3  1  6  0  0  0
  4  5  1  0  0  0  0
  4 15  1  0  0  0  0
  5  6  1  0  0  0  0
  6  7  2  0  0  0  0
  6  8  2  0  0  0  0
  6  9  1  0  0  0  0
  9 10  2  0  0  0  0
  9 14  1  0  0  0  0
 10 11  1  0  0  0  0
 11 12  2  0  0  0  0
 12 13  1  0  0  0  0
 13 14  2  0  0  0  0
 15 16  2  0  0  0  0
 15 17  1  0  0  0  0
M  END
>  <CHROM.1>
178.17741185,-176.94097293,-101.59621919,95.43058765,-152.83878957,-10.20295323
11.78342029,2.05608444,23.13231612,1.47637719,-0.32488309,0.25246257

>  <Name>
CCCC(NS(=O)(=O)c1ccccc1)C(=N)N

>  <RI>
0

>  <Rbt.Current_Directory>
/home/gse84885/github/im/docking-validation/targets/mpro/expts/jackall/work/Mpro-x0072_0/work/0d/e145b6335062adb182f8aa36ce5dba

>  <Rbt.Executable>
rbdock ($Id: //depot/dev/client3/rdock/2013.1/src/exe/rbdock.cxx#4 $)

>  <Rbt.Library>
libRbt.so (2013.1, Build901 2013/11/27)

>  <Rbt.Parameter_File>
/rDock_2013.1/data/scripts/dock.prm

>  <Rbt.Receptor>
docking-global.prm

>  <SCORE>
-8.59423

>  <SCORE.INTER>
-8.38054

>  <SCORE.INTER.CONST>
1

>  <SCORE.INTER.POLAR>
0

>  <SCORE.INTER.REPUL>
0.0323148

>  <SCORE.INTER.ROT>
6

>  <SCORE.INTER.VDW>
-19.9421

>  <SCORE.INTER.norm>
-0.492973

>  <SCORE.INTRA>
-0.213691

>  <SCORE.INTRA.DIHEDRAL>
-1.53637

>  <SCORE.INTRA.DIHEDRAL.0>
5.40823

>  <SCORE.INTRA.POLAR>
0

>  <SCORE.INTRA.POLAR.0>
0

>  <SCORE.INTRA.REPUL>
0

>  <SCORE.INTRA.REPUL.0>
0

>  <SCORE.INTRA.VDW>
0.554496

>  <SCORE.INTRA.VDW.0>
-3.17426

>  <SCORE.INTRA.norm>
-0.0125701

>  <SCORE.RESTR>
0

>  <SCORE.RESTR.CAVITY>
0

>  <SCORE.RESTR.norm>
0

>  <SCORE.SYSTEM>
0

>  <SCORE.SYSTEM.CONST>
0

>  <SCORE.SYSTEM.DIHEDRAL>
0

>  <SCORE.SYSTEM.norm>
0

>  <SCORE.heavy>
17

>  <SCORE.norm>
-0.505543

>  <XChemDeepScore>
0.978715

>  <SuCOS_Max_Score>
0.39685387406092815

>  <SuCOS_Max_FeatureMap_Score>
0.078132649764994497

>  <SuCOS_Max_Protrude_Score>
0.71557509835686184

>  <SuCOS_Max_Index>
2

>  <SuCOS_Cum_Score>
1.9276160240749396

>  <SuCOS_Cum_FeatureMap_Score>
0.39431674441748099

>  <SuCOS_Cum_Protrude_Score>
3.4609153037323992

$$$$
