NC(N)=NCC(O)c1ccccc1
 OpenBabel03122003533D

 26 26  0  0  0  0  0  0  0  0999 V2000
   13.9506   -1.6153   21.2955 N   0  0  0  0  0  0  0  0  0  0  0  0
   13.0697   -1.0502   22.1477 C   0  0  0  0  0  0  0  0  0  0  0  0
   12.0268   -1.8834   22.3436 N   0  0  0  0  0  0  0  0  0  0  0  0
   13.2855    0.1161   22.6480 N   0  0  0  0  0  0  0  0  0  0  0  0
   12.2757    0.6227   23.5923 C   0  0  0  0  0  0  0  0  0  0  0  0
   11.4624    1.7982   22.9994 C   0  0  1  0  0  0  0  0  0  0  0  0
   10.3248    2.1302   23.7977 O   0  0  0  0  0  0  0  0  0  0  0  0
   12.3044    3.0607   22.8451 C   0  0  0  0  0  0  0  0  0  0  0  0
   12.5247    3.5933   21.5676 C   0  0  0  0  0  0  0  0  0  0  0  0
   13.2990    4.7426   21.3916 C   0  0  0  0  0  0  0  0  0  0  0  0
   13.8581    5.3866   22.4931 C   0  0  0  0  0  0  0  0  0  0  0  0
   13.6311    4.8843   23.7730 C   0  0  0  0  0  0  0  0  0  0  0  0
   12.8537    3.7353   23.9513 C   0  0  0  0  0  0  0  0  0  0  0  0
   13.7705   -2.5081   20.9218 H   0  0  0  0  0  0  0  0  0  0  0  0
   14.7733   -1.1347   21.0476 H   0  0  0  0  0  0  0  0  0  0  0  0
   12.0002   -2.7547   21.8861 H   0  0  0  0  0  0  0  0  0  0  0  0
   11.2924   -1.6201   22.9441 H   0  0  0  0  0  0  0  0  0  0  0  0
   12.7707    0.9584   24.4795 H   0  0  0  0  0  0  0  0  0  0  0  0
   11.5948   -0.1746   23.8058 H   0  0  0  0  0  0  0  0  0  0  0  0
   11.1407    1.4548   22.0384 H   0  0  0  0  0  0  0  0  0  0  0  0
   10.6200    2.4410   24.6678 H   0  0  0  0  0  0  0  0  0  0  0  0
   12.1088    3.1296   20.7448 H   0  0  0  0  0  0  0  0  0  0  0  0
   13.4573    5.1158   20.4425 H   0  0  0  0  0  0  0  0  0  0  0  0
   14.4371    6.2308   22.3620 H   0  0  0  0  0  0  0  0  0  0  0  0
   14.0381    5.3619   24.5923 H   0  0  0  0  0  0  0  0  0  0  0  0
   12.6811    3.3785   24.9041 H   0  0  0  0  0  0  0  0  0  0  0  0
  1  2  1  0  0  0  0
  1 14  1  0  0  0  0
  1 15  1  0  0  0  0
  2  3  1  0  0  0  0
  2  4  2  0  0  0  0
  3 16  1  0  0  0  0
  3 17  1  0  0  0  0
  4  5  1  0  0  0  0
  5  6  1  0  0  0  0
  5 18  1  0  0  0  0
  5 19  1  0  0  0  0
  6  7  1  0  0  0  0
  6  8  1  0  0  0  0
  6 20  1  6  0  0  0
  7 21  1  0  0  0  0
  8  9  2  0  0  0  0
  8 13  1  0  0  0  0
  9 10  1  0  0  0  0
  9 22  1  0  0  0  0
 10 11  2  0  0  0  0
 10 23  1  0  0  0  0
 11 12  1  0  0  0  0
 11 24  1  0  0  0  0
 12 13  2  0  0  0  0
 12 25  1  0  0  0  0
 13 26  1  0  0  0  0
M  END
>  <CHROM.1>
-109.98930659,168.99971529,117.27266881,12.64619557,1.91675766,22.69704050
-1.63655871,0.62899579,0.13189652

>  <Name>
NC(N)=NCC(O)c1ccccc1

>  <RI>
0

>  <Rbt.Current_Directory>
/home/gse84885/github/im/docking-validation/targets/mpro/expts/jackall/work/Mpro-x0072_0/work/58/392bfd9b81a9f3d4ecdb18c47b7f60

>  <Rbt.Executable>
rbdock ($Id: //depot/dev/client3/rdock/2013.1/src/exe/rbdock.cxx#4 $)

>  <Rbt.Library>
libRbt.so (2013.1, Build901 2013/11/27)

>  <Rbt.Parameter_File>
/rDock_2013.1/data/scripts/dock.prm

>  <Rbt.Receptor>
docking-global.prm

>  <SCORE>
-9.35489

>  <SCORE.INTER>
-8.17468

>  <SCORE.INTER.CONST>
1

>  <SCORE.INTER.POLAR>
0

>  <SCORE.INTER.REPUL>
0

>  <SCORE.INTER.ROT>
3

>  <SCORE.INTER.VDW>
-16.5747

>  <SCORE.INTER.norm>
-0.628821

>  <SCORE.INTRA>
-1.18021

>  <SCORE.INTRA.DIHEDRAL>
-1.81596

>  <SCORE.INTRA.DIHEDRAL.0>
3.12855

>  <SCORE.INTRA.POLAR>
0

>  <SCORE.INTRA.POLAR.0>
0

>  <SCORE.INTRA.REPUL>
0

>  <SCORE.INTRA.REPUL.0>
0

>  <SCORE.INTRA.VDW>
-0.272233

>  <SCORE.INTRA.VDW.0>
-0.751304

>  <SCORE.INTRA.norm>
-0.0907856

>  <SCORE.RESTR>
0

>  <SCORE.RESTR.CAVITY>
0

>  <SCORE.RESTR.norm>
0

>  <SCORE.SYSTEM>
0

>  <SCORE.SYSTEM.CONST>
0

>  <SCORE.SYSTEM.DIHEDRAL>
0

>  <SCORE.SYSTEM.norm>
0

>  <SCORE.heavy>
13

>  <SCORE.norm>
-0.719607

>  <XChemDeepScore>
0.992887

>  <SuCOS_Max_Score>
0.3671351783278467

>  <SuCOS_Max_FeatureMap_Score>
0.13783734130936409

>  <SuCOS_Max_Protrude_Score>
0.59643301534632931

>  <SuCOS_Max_Index>
1

>  <SuCOS_Cum_Score>
1.5621562701271756

>  <SuCOS_Cum_FeatureMap_Score>
0.20076870860021584

>  <SuCOS_Cum_Protrude_Score>
2.9235438316541353

$$$$
