C[C@@H](Cc1ccccc1)C(=O)NO
 OpenBabel03122003513D

 13 13  0  0  0  0  0  0  0  0999 V2000
   13.5586    4.1693   22.4995 C   0  0  0  0  0  0  0  0  0  0  0  0
   12.2499    3.7553   23.1794 C   0  0  1  0  0  0  0  0  0  0  0  0
   12.4318    2.4696   24.0153 C   0  0  0  0  0  0  0  0  0  0  0  0
   12.5336    1.1942   23.2022 C   0  0  0  0  0  0  0  0  0  0  0  0
   13.7315    0.4646   23.1728 C   0  0  0  0  0  0  0  0  0  0  0  0
   13.8371   -0.6974   22.4089 C   0  0  0  0  0  0  0  0  0  0  0  0
   12.7462   -1.1476   21.6690 C   0  0  0  0  0  0  0  0  0  0  0  0
   11.5450   -0.4415   21.7023 C   0  0  0  0  0  0  0  0  0  0  0  0
   11.4364    0.7190   22.4715 C   0  0  0  0  0  0  0  0  0  0  0  0
   11.7195    4.8870   24.0737 C   0  0  0  0  0  0  0  0  0  0  0  0
   10.7014    5.5106   23.7747 O   0  0  0  0  0  0  0  0  0  0  0  0
   12.5480    5.1040   25.1720 N   0  0  0  0  0  0  0  0  0  0  0  0
   12.1732    6.0062   26.1479 O   0  0  0  0  0  0  0  0  0  0  0  0
  2  1  1  1  0  0  0
  2  3  1  0  0  0  0
  2 10  1  0  0  0  0
  3  4  1  0  0  0  0
  4  5  2  0  0  0  0
  4  9  1  0  0  0  0
  5  6  1  0  0  0  0
  6  7  2  0  0  0  0
  7  8  1  0  0  0  0
  8  9  2  0  0  0  0
 10 11  2  0  0  0  0
 10 12  1  0  0  0  0
 12 13  1  0  0  0  0
M  END
>  <CHROM.1>
-74.89452496,110.38929688,113.35934258,12.38580271,2.59958900,23.40072563
-1.70589535,0.44677679,-2.66636484

>  <Name>
C[C@@H](Cc1ccccc1)C(=O)NO

>  <RI>
0

>  <Rbt.Current_Directory>
/home/gse84885/github/im/docking-validation/targets/mpro/expts/jackall/work/Mpro-x0072_0/work/d9/0a0d942dd99ebd5b0411faf6dd7b95

>  <Rbt.Executable>
rbdock ($Id: //depot/dev/client3/rdock/2013.1/src/exe/rbdock.cxx#4 $)

>  <Rbt.Library>
libRbt.so (2013.1, Build901 2013/11/27)

>  <Rbt.Parameter_File>
/rDock_2013.1/data/scripts/dock.prm

>  <Rbt.Receptor>
docking-global.prm

>  <SCORE>
-8.03467

>  <SCORE.INTER>
-7.45811

>  <SCORE.INTER.CONST>
1

>  <SCORE.INTER.POLAR>
0

>  <SCORE.INTER.REPUL>
0.0369098

>  <SCORE.INTER.ROT>
3

>  <SCORE.INTER.VDW>
-16.0427

>  <SCORE.INTER.norm>
-0.5737

>  <SCORE.INTRA>
-0.576565

>  <SCORE.INTRA.DIHEDRAL>
0.843451

>  <SCORE.INTRA.DIHEDRAL.0>
1.30846

>  <SCORE.INTRA.POLAR>
0

>  <SCORE.INTRA.POLAR.0>
0

>  <SCORE.INTRA.REPUL>
0

>  <SCORE.INTRA.REPUL.0>
0

>  <SCORE.INTRA.VDW>
-0.998291

>  <SCORE.INTRA.VDW.0>
0.493452

>  <SCORE.INTRA.norm>
-0.0443512

>  <SCORE.RESTR>
0

>  <SCORE.RESTR.CAVITY>
0

>  <SCORE.RESTR.norm>
0

>  <SCORE.SYSTEM>
0

>  <SCORE.SYSTEM.CONST>
0

>  <SCORE.SYSTEM.DIHEDRAL>
0

>  <SCORE.SYSTEM.norm>
0

>  <SCORE.heavy>
13

>  <SCORE.norm>
-0.618052

>  <XChemDeepScore>
0.997458

>  <SuCOS_Max_Score>
0.46678437175993126

>  <SuCOS_Max_FeatureMap_Score>
0.346882721122517

>  <SuCOS_Max_Protrude_Score>
0.58668602239734557

>  <SuCOS_Max_Index>
1

>  <SuCOS_Cum_Score>
1.9382086318503515

>  <SuCOS_Cum_FeatureMap_Score>
0.97696616074317677

>  <SuCOS_Cum_Protrude_Score>
2.8994511029575261

$$$$
