CC(OCc1ccccc1)C(N)C(=O)Cc1cccnc1
 OpenBabel03122003533D

 41 42  0  0  0  0  0  0  0  0999 V2000
    9.9578   -1.2842   24.8486 C   0  0  0  0  0  0  0  0  0  0  0  0
   10.7745   -0.5983   23.7471 C   0  0  1  0  0  0  0  0  0  0  0  0
    9.7893   -0.2090   22.7526 O   0  0  0  0  0  0  0  0  0  0  0  0
    9.4269   -1.2822   21.8844 C   0  0  0  0  0  0  0  0  0  0  0  0
    8.3377   -0.9768   20.8949 C   0  0  0  0  0  0  0  0  0  0  0  0
    8.7014   -0.3223   19.7020 C   0  0  0  0  0  0  0  0  0  0  0  0
    7.7594   -0.0656   18.7104 C   0  0  0  0  0  0  0  0  0  0  0  0
    6.4454   -0.4769   18.8951 C   0  0  0  0  0  0  0  0  0  0  0  0
    6.0786   -1.1417   20.0652 C   0  0  0  0  0  0  0  0  0  0  0  0
    7.0186   -1.3986   21.0675 C   0  0  0  0  0  0  0  0  0  0  0  0
   11.6025    0.6177   24.2978 C   0  0  1  0  0  0  0  0  0  0  0  0
   12.4923    0.3186   25.4347 N   0  0  0  0  0  0  0  0  0  0  0  0
   12.5504    1.1716   23.2215 C   0  0  0  0  0  0  0  0  0  0  0  0
   13.7249    0.7970   23.1474 O   0  0  0  0  0  0  0  0  0  0  0  0
   11.9809    2.1987   22.2535 C   0  0  0  0  0  0  0  0  0  0  0  0
   12.5442    3.5690   22.5277 C   0  0  0  0  0  0  0  0  0  0  0  0
   13.0954    4.3395   21.5056 C   0  0  0  0  0  0  0  0  0  0  0  0
   13.5070    5.6415   21.7773 C   0  0  0  0  0  0  0  0  0  0  0  0
   13.3542    6.1231   23.0673 C   0  0  0  0  0  0  0  0  0  0  0  0
   12.8453    5.4010   24.0852 N   0  0  0  0  0  0  0  0  0  0  0  0
   12.4466    4.1440   23.7925 C   0  0  0  0  0  0  0  0  0  0  0  0
    9.4117   -2.1036   24.4299 H   0  0  0  0  0  0  0  0  0  0  0  0
    9.2739   -0.5809   25.2759 H   0  0  0  0  0  0  0  0  0  0  0  0
   10.6179   -1.6468   25.6087 H   0  0  0  0  0  0  0  0  0  0  0  0
   11.5176   -1.2448   23.3291 H   0  0  0  0  0  0  0  0  0  0  0  0
    9.1005   -2.1008   22.4912 H   0  0  0  0  0  0  0  0  0  0  0  0
   10.2993   -1.4960   21.3030 H   0  0  0  0  0  0  0  0  0  0  0  0
    9.6807   -0.0288   19.5612 H   0  0  0  0  0  0  0  0  0  0  0  0
    8.0345    0.4259   17.8456 H   0  0  0  0  0  0  0  0  0  0  0  0
    5.7397   -0.2903   18.1656 H   0  0  0  0  0  0  0  0  0  0  0  0
    5.1013   -1.4477   20.1925 H   0  0  0  0  0  0  0  0  0  0  0  0
    6.7395   -1.8959   21.9277 H   0  0  0  0  0  0  0  0  0  0  0  0
   10.8372    1.2988   24.6065 H   0  0  0  0  0  0  0  0  0  0  0  0
   13.2198   -0.3307   25.1354 H   0  0  0  0  0  0  0  0  0  0  0  0
   11.9502   -0.1024   26.1892 H   0  0  0  0  0  0  0  0  0  0  0  0
   10.9169    2.2296   22.3620 H   0  0  0  0  0  0  0  0  0  0  0  0
   12.2478    1.9133   21.2574 H   0  0  0  0  0  0  0  0  0  0  0  0
   13.1975    3.9486   20.5560 H   0  0  0  0  0  0  0  0  0  0  0  0
   13.9155    6.2328   21.0367 H   0  0  0  0  0  0  0  0  0  0  0  0
   13.6478    7.0934   23.2605 H   0  0  0  0  0  0  0  0  0  0  0  0
   12.0447    3.5743   24.5534 H   0  0  0  0  0  0  0  0  0  0  0  0
  1 22  1  0  0  0  0
  1 23  1  0  0  0  0
  1 24  1  0  0  0  0
  2  1  1  0  0  0  0
  2  3  1  0  0  0  0
  2 11  1  0  0  0  0
  2 25  1  6  0  0  0
  3  4  1  0  0  0  0
  4  5  1  0  0  0  0
  4 26  1  0  0  0  0
  4 27  1  0  0  0  0
  5  6  2  0  0  0  0
  5 10  1  0  0  0  0
  6  7  1  0  0  0  0
  6 28  1  0  0  0  0
  7  8  2  0  0  0  0
  7 29  1  0  0  0  0
  8  9  1  0  0  0  0
  8 30  1  0  0  0  0
  9 10  2  0  0  0  0
  9 31  1  0  0  0  0
 10 32  1  0  0  0  0
 11 12  1  0  0  0  0
 11 13  1  0  0  0  0
 11 33  1  1  0  0  0
 12 34  1  0  0  0  0
 12 35  1  0  0  0  0
 13 14  2  0  0  0  0
 13 15  1  0  0  0  0
 15 16  1  0  0  0  0
 15 36  1  0  0  0  0
 15 37  1  0  0  0  0
 16 17  2  0  0  0  0
 16 21  1  0  0  0  0
 17 18  1  0  0  0  0
 17 38  1  0  0  0  0
 18 19  2  0  0  0  0
 18 39  1  0  0  0  0
 19 20  1  0  0  0  0
 19 40  1  0  0  0  0
 20 21  2  0  0  0  0
 21 41  1  0  0  0  0
M  END
>  <CHROM.1>
-81.52705743,54.53982003,175.71266415,82.77144720,-94.27227621,108.74850789
129.32119593,10.71377083,1.23185979,22.31973292,-2.84323746,-0.76586255,-0.66450406

>  <Name>
CC(OCc1ccccc1)C(N)C(=O)Cc1cccnc1

>  <RI>
0

>  <Rbt.Current_Directory>
/home/gse84885/github/im/docking-validation/targets/mpro/expts/jackall/work/Mpro-x0072_0/work/1a/2694b1304f80441ea16ba71352daa7

>  <Rbt.Executable>
rbdock ($Id: //depot/dev/client3/rdock/2013.1/src/exe/rbdock.cxx#4 $)

>  <Rbt.Library>
libRbt.so (2013.1, Build901 2013/11/27)

>  <Rbt.Parameter_File>
/rDock_2013.1/data/scripts/dock.prm

>  <Rbt.Receptor>
docking-global.prm

>  <SCORE>
-10.4647

>  <SCORE.INTER>
-11.0463

>  <SCORE.INTER.CONST>
1

>  <SCORE.INTER.POLAR>
0

>  <SCORE.INTER.REPUL>
0

>  <SCORE.INTER.ROT>
7

>  <SCORE.INTER.VDW>
-23.4463

>  <SCORE.INTER.norm>
-0.526015

>  <SCORE.INTRA>
0.581645

>  <SCORE.INTRA.DIHEDRAL>
1.24081

>  <SCORE.INTRA.DIHEDRAL.0>
5.16432

>  <SCORE.INTRA.POLAR>
0

>  <SCORE.INTRA.POLAR.0>
0

>  <SCORE.INTRA.REPUL>
0

>  <SCORE.INTRA.REPUL.0>
0

>  <SCORE.INTRA.VDW>
-0.0387585

>  <SCORE.INTRA.VDW.0>
-0.843345

>  <SCORE.INTRA.norm>
0.0276974

>  <SCORE.RESTR>
0

>  <SCORE.RESTR.CAVITY>
0

>  <SCORE.RESTR.norm>
0

>  <SCORE.SYSTEM>
0

>  <SCORE.SYSTEM.CONST>
0

>  <SCORE.SYSTEM.DIHEDRAL>
0

>  <SCORE.SYSTEM.norm>
0

>  <SCORE.heavy>
21

>  <SCORE.norm>
-0.498318

>  <XChemDeepScore>
0.967885

>  <SuCOS_Max_Score>
0.31677663780279175

>  <SuCOS_Max_FeatureMap_Score>
0.0039851692932910427

>  <SuCOS_Max_Protrude_Score>
0.62956810631229243

>  <SuCOS_Max_Index>
5

>  <SuCOS_Cum_Score>
1.8418982196843861

>  <SuCOS_Cum_FeatureMap_Score>
0.16456612726047437

>  <SuCOS_Cum_Protrude_Score>
3.5192303121082973

$$$$
