O=S(=O)(O)CCCCNOCc1ccccc1
 OpenBabel03122003513D

 17 17  0  0  0  0  0  0  0  0999 V2000
    7.9986   -0.8493   17.9698 O   0  0  0  0  0  0  0  0  0  0  0  0
    7.0445   -0.1634   18.8369 S   0  0  0  0  0  0  0  0  0  0  0  0
    7.1880    1.2915   18.8769 O   0  0  0  0  0  0  0  0  0  0  0  0
    5.6722   -0.6539   18.7559 O   0  0  0  0  0  0  0  0  0  0  0  0
    7.5678   -0.6691   20.4600 C   0  0  0  0  0  0  0  0  0  0  0  0
    9.0495   -0.4064   20.7261 C   0  0  0  0  0  0  0  0  0  0  0  0
    9.5045   -0.9429   22.0886 C   0  0  0  0  0  0  0  0  0  0  0  0
   10.9881   -0.6694   22.2940 C   0  0  0  0  0  0  0  0  0  0  0  0
   11.3042    0.7614   22.3166 N   0  0  0  0  0  0  0  0  0  0  0  0
   12.7463    0.8110   22.5879 O   0  0  0  0  0  0  0  0  0  0  0  0
   12.9961    1.6977   23.6879 C   0  0  0  0  0  0  0  0  0  0  0  0
   12.7589    3.1212   23.2694 C   0  0  0  0  0  0  0  0  0  0  0  0
   11.5724    3.7803   23.6246 C   0  0  0  0  0  0  0  0  0  0  0  0
   11.3901    5.1224   23.2990 C   0  0  0  0  0  0  0  0  0  0  0  0
   12.3941    5.8159   22.6249 C   0  0  0  0  0  0  0  0  0  0  0  0
   13.5811    5.1707   22.2778 C   0  0  0  0  0  0  0  0  0  0  0  0
   13.7648    3.8271   22.6019 C   0  0  0  0  0  0  0  0  0  0  0  0
  1  2  2  0  0  0  0
  2  3  2  0  0  0  0
  2  4  1  0  0  0  0
  2  5  1  0  0  0  0
  5  6  1  0  0  0  0
  6  7  1  0  0  0  0
  7  8  1  0  0  0  0
  8  9  1  0  0  0  0
  9 10  1  0  0  0  0
 10 11  1  0  0  0  0
 11 12  1  0  0  0  0
 12 13  2  0  0  0  0
 12 17  1  0  0  0  0
 13 14  1  0  0  0  0
 14 15  2  0  0  0  0
 15 16  1  0  0  0  0
 16 17  2  0  0  0  0
M  END
>  <CHROM.1>
53.39814583,-175.74582052,179.33313564,62.59598981,177.27468545,-128.62660906
-70.91379533,101.57060234,10.08236988,1.35005276,21.25592296,2.66411387,0.66713207
3.02199859

>  <Name>
O=S(=O)(O)CCCCNOCc1ccccc1

>  <RI>
0

>  <Rbt.Current_Directory>
/home/gse84885/github/im/docking-validation/targets/mpro/expts/jackall/work/Mpro-x0072_0/work/a4/3c12c1260b29bf3814ea5a18ca90bb

>  <Rbt.Executable>
rbdock ($Id: //depot/dev/client3/rdock/2013.1/src/exe/rbdock.cxx#4 $)

>  <Rbt.Library>
libRbt.so (2013.1, Build901 2013/11/27)

>  <Rbt.Parameter_File>
/rDock_2013.1/data/scripts/dock.prm

>  <Rbt.Receptor>
docking-global.prm

>  <SCORE>
-6.70631

>  <SCORE.INTER>
-4.63179

>  <SCORE.INTER.CONST>
1

>  <SCORE.INTER.POLAR>
0

>  <SCORE.INTER.REPUL>
0.0188992

>  <SCORE.INTER.ROT>
8

>  <SCORE.INTER.VDW>
-18.1263

>  <SCORE.INTER.norm>
-0.272458

>  <SCORE.INTRA>
-2.07452

>  <SCORE.INTRA.DIHEDRAL>
0.428775

>  <SCORE.INTRA.DIHEDRAL.0>
1.37278

>  <SCORE.INTRA.POLAR>
0

>  <SCORE.INTRA.POLAR.0>
0

>  <SCORE.INTRA.REPUL>
0

>  <SCORE.INTRA.REPUL.0>
0

>  <SCORE.INTRA.VDW>
-2.2889

>  <SCORE.INTRA.VDW.0>
0.976527

>  <SCORE.INTRA.norm>
-0.12203

>  <SCORE.RESTR>
0

>  <SCORE.RESTR.CAVITY>
0

>  <SCORE.RESTR.norm>
0

>  <SCORE.SYSTEM>
0

>  <SCORE.SYSTEM.CONST>
0

>  <SCORE.SYSTEM.DIHEDRAL>
0

>  <SCORE.SYSTEM.norm>
0

>  <SCORE.heavy>
17

>  <SCORE.norm>
-0.394489

>  <XChemDeepScore>
0.970941

>  <SuCOS_Max_Score>
0.3051215983522812

>  <SuCOS_Max_FeatureMap_Score>
0.10806251134630691

>  <SuCOS_Max_Protrude_Score>
0.50218068535825544

>  <SuCOS_Max_Index>
1

>  <SuCOS_Cum_Score>
1.6511091671133729

>  <SuCOS_Cum_FeatureMap_Score>
0.27929266647220485

>  <SuCOS_Cum_Protrude_Score>
3.0229256677545404

$$$$
