NC(CC(=O)NO)Cc1ccccc1
 OpenBabel03122003513D

 14 14  0  0  0  0  0  0  0  0999 V2000
   11.4396   -0.0387   24.7792 N   0  0  0  0  0  0  0  0  0  0  0  0
   12.3048    1.0722   24.3375 C   0  0  1  0  0  0  0  0  0  0  0  0
   13.4737    0.4842   23.5320 C   0  0  0  0  0  0  0  0  0  0  0  0
   13.0165   -0.3738   22.3727 C   0  0  0  0  0  0  0  0  0  0  0  0
   11.8677   -0.3992   21.9386 O   0  0  0  0  0  0  0  0  0  0  0  0
   14.0243   -1.1127   21.8040 N   0  0  0  0  0  0  0  0  0  0  0  0
   13.6518   -1.9823   20.7569 O   0  0  0  0  0  0  0  0  0  0  0  0
   11.5031    2.0966   23.4943 C   0  0  0  0  0  0  0  0  0  0  0  0
   12.2908    3.3240   23.1007 C   0  0  0  0  0  0  0  0  0  0  0  0
   12.7530    4.2206   24.0741 C   0  0  0  0  0  0  0  0  0  0  0  0
   13.4714    5.3588   23.7020 C   0  0  0  0  0  0  0  0  0  0  0  0
   13.7272    5.6148   22.3558 C   0  0  0  0  0  0  0  0  0  0  0  0
   13.2665    4.7347   21.3809 C   0  0  0  0  0  0  0  0  0  0  0  0
   12.5536    3.5932   21.7508 C   0  0  0  0  0  0  0  0  0  0  0  0
  2  1  1  6  0  0  0
  2  3  1  0  0  0  0
  2  8  1  0  0  0  0
  3  4  1  0  0  0  0
  4  5  2  0  0  0  0
  4  6  1  0  0  0  0
  6  7  1  0  0  0  0
  8  9  1  0  0  0  0
  9 10  2  0  0  0  0
  9 14  1  0  0  0  0
 10 11  1  0  0  0  0
 11 12  2  0  0  0  0
 12 13  1  0  0  0  0
 13 14  2  0  0  0  0
M  END
>  <CHROM.1>
55.35853714,175.14758146,13.83526410,-64.77378225,12.80614275,1.77492322
22.78011380,1.59964434,-1.07963156,-2.99169127

>  <Name>
NC(CC(=O)NO)Cc1ccccc1

>  <RI>
0

>  <Rbt.Current_Directory>
/home/gse84885/github/im/docking-validation/targets/mpro/expts/jackall/work/Mpro-x0072_0/work/50/3bc72b7b4401154777d1f53294af42

>  <Rbt.Executable>
rbdock ($Id: //depot/dev/client3/rdock/2013.1/src/exe/rbdock.cxx#4 $)

>  <Rbt.Library>
libRbt.so (2013.1, Build901 2013/11/27)

>  <Rbt.Parameter_File>
/rDock_2013.1/data/scripts/dock.prm

>  <Rbt.Receptor>
docking-global.prm

>  <SCORE>
-8.82821

>  <SCORE.INTER>
-8.84153

>  <SCORE.INTER.CONST>
1

>  <SCORE.INTER.POLAR>
0

>  <SCORE.INTER.REPUL>
0

>  <SCORE.INTER.ROT>
4

>  <SCORE.INTER.VDW>
-18.2415

>  <SCORE.INTER.norm>
-0.631538

>  <SCORE.INTRA>
0.013318

>  <SCORE.INTRA.DIHEDRAL>
-0.405978

>  <SCORE.INTRA.DIHEDRAL.0>
2.55207

>  <SCORE.INTRA.POLAR>
0

>  <SCORE.INTRA.POLAR.0>
0

>  <SCORE.INTRA.REPUL>
0

>  <SCORE.INTRA.REPUL.0>
0

>  <SCORE.INTRA.VDW>
0.216307

>  <SCORE.INTRA.VDW.0>
-0.968205

>  <SCORE.INTRA.norm>
0.000951284

>  <SCORE.RESTR>
0

>  <SCORE.RESTR.CAVITY>
0

>  <SCORE.RESTR.norm>
0

>  <SCORE.SYSTEM>
0

>  <SCORE.SYSTEM.CONST>
0

>  <SCORE.SYSTEM.DIHEDRAL>
0

>  <SCORE.SYSTEM.norm>
0

>  <SCORE.heavy>
14

>  <SCORE.norm>
-0.630586

>  <XChemDeepScore>
0.998396

>  <SuCOS_Max_Score>
0.41129407050430217

>  <SuCOS_Max_FeatureMap_Score>
0.23680281154320845

>  <SuCOS_Max_Protrude_Score>
0.58578532946539585

>  <SuCOS_Max_Index>
1

>  <SuCOS_Cum_Score>
1.8068394088471156

>  <SuCOS_Cum_FeatureMap_Score>
0.54131488220091739

>  <SuCOS_Cum_Protrude_Score>
3.0723639354933137

$$$$
