N[C@H](CC(=O)NO)Cc1ccccc1
 OpenBabel03122003533D

 28 28  0  0  0  0  0  0  0  0999 V2000
   13.4142    0.7446   22.7601 N   0  0  0  0  0  0  0  0  0  0  0  0
   11.9549    0.9198   22.5306 C   0  0  2  0  0  0  0  0  0  0  0  0
   11.4336   -0.3088   21.7652 C   0  0  0  0  0  0  0  0  0  0  0  0
   11.8319   -1.6248   22.4219 C   0  0  0  0  0  0  0  0  0  0  0  0
   11.0756   -2.2160   23.1969 O   0  0  0  0  0  0  0  0  0  0  0  0
   13.0821   -2.1365   22.1614 N   0  0  0  0  0  0  0  0  0  0  0  0
   13.9688   -1.5155   21.3045 O   0  0  0  0  0  0  0  0  0  0  0  0
   11.6501    2.2258   21.7442 C   0  0  0  0  0  0  0  0  0  0  0  0
   12.3363    3.4804   22.2530 C   0  0  0  0  0  0  0  0  0  0  0  0
   12.9706    4.3489   21.3526 C   0  0  0  0  0  0  0  0  0  0  0  0
   13.5741    5.5250   21.8021 C   0  0  0  0  0  0  0  0  0  0  0  0
   13.5467    5.8495   23.1574 C   0  0  0  0  0  0  0  0  0  0  0  0
   12.9155    4.9975   24.0614 C   0  0  0  0  0  0  0  0  0  0  0  0
   12.3098    3.8212   23.6121 C   0  0  0  0  0  0  0  0  0  0  0  0
   13.7779    1.5513   23.2674 H   0  0  0  0  0  0  0  0  0  0  0  0
   13.8922    0.6636   21.8627 H   0  0  0  0  0  0  0  0  0  0  0  0
   11.4588    1.0046   23.4748 H   0  0  0  0  0  0  0  0  0  0  0  0
   11.8319   -0.2876   20.7723 H   0  0  0  0  0  0  0  0  0  0  0  0
   10.3648   -0.2590   21.7646 H   0  0  0  0  0  0  0  0  0  0  0  0
   13.3538   -2.9744   22.6012 H   0  0  0  0  0  0  0  0  0  0  0  0
   13.5644   -0.7081   20.9503 H   0  0  0  0  0  0  0  0  0  0  0  0
   10.5937    2.3919   21.7810 H   0  0  0  0  0  0  0  0  0  0  0  0
   12.0323    2.0661   20.7576 H   0  0  0  0  0  0  0  0  0  0  0  0
   12.9914    4.1162   20.3474 H   0  0  0  0  0  0  0  0  0  0  0  0
   14.0407    6.1544   21.1305 H   0  0  0  0  0  0  0  0  0  0  0  0
   13.9927    6.7185   23.4904 H   0  0  0  0  0  0  0  0  0  0  0  0
   12.8953    5.2359   25.0653 H   0  0  0  0  0  0  0  0  0  0  0  0
   11.8390    3.1981   24.2868 H   0  0  0  0  0  0  0  0  0  0  0  0
  1 15  1  0  0  0  0
  1 16  1  0  0  0  0
  2  8  1  0  0  0  0
  2  3  1  0  0  0  0
  2  1  1  0  0  0  0
  2 17  1  1  0  0  0
  3  4  1  0  0  0  0
  3 18  1  0  0  0  0
  3 19  1  0  0  0  0
  4  5  2  0  0  0  0
  4  6  1  0  0  0  0
  6  7  1  0  0  0  0
  6 20  1  0  0  0  0
  7 21  1  0  0  0  0
  8  9  1  0  0  0  0
  8 22  1  0  0  0  0
  8 23  1  0  0  0  0
  9 10  2  0  0  0  0
  9 14  1  0  0  0  0
 10 11  1  0  0  0  0
 10 24  1  0  0  0  0
 11 12  2  0  0  0  0
 11 25  1  0  0  0  0
 12 13  1  0  0  0  0
 12 26  1  0  0  0  0
 13 14  2  0  0  0  0
 13 27  1  0  0  0  0
 14 28  1  0  0  0  0
M  END
>  <CHROM.1>
-48.05350638,51.35944538,95.49001310,133.65879211,12.57555912,1.58496647
22.42560679,-1.71197647,0.66336388,0.15503303

>  <Name>
N[C@H](CC(=O)NO)Cc1ccccc1

>  <RI>
0

>  <Rbt.Current_Directory>
/home/gse84885/github/im/docking-validation/targets/mpro/expts/jackall/work/Mpro-x0072_0/work/50/3bc72b7b4401154777d1f53294af42

>  <Rbt.Executable>
rbdock ($Id: //depot/dev/client3/rdock/2013.1/src/exe/rbdock.cxx#4 $)

>  <Rbt.Library>
libRbt.so (2013.1, Build901 2013/11/27)

>  <Rbt.Parameter_File>
/rDock_2013.1/data/scripts/dock.prm

>  <Rbt.Receptor>
docking-global.prm

>  <SCORE>
-8.33151

>  <SCORE.INTER>
-8.22097

>  <SCORE.INTER.CONST>
1

>  <SCORE.INTER.POLAR>
0

>  <SCORE.INTER.REPUL>
0

>  <SCORE.INTER.ROT>
4

>  <SCORE.INTER.VDW>
-17.621

>  <SCORE.INTER.norm>
-0.587212

>  <SCORE.INTRA>
-0.110549

>  <SCORE.INTRA.DIHEDRAL>
0.537232

>  <SCORE.INTRA.DIHEDRAL.0>
2.63192

>  <SCORE.INTRA.POLAR>
0

>  <SCORE.INTRA.POLAR.0>
0

>  <SCORE.INTRA.REPUL>
0

>  <SCORE.INTRA.REPUL.0>
0

>  <SCORE.INTRA.VDW>
-0.379165

>  <SCORE.INTRA.VDW.0>
-0.813597

>  <SCORE.INTRA.norm>
-0.00789634

>  <SCORE.RESTR>
0

>  <SCORE.RESTR.CAVITY>
0

>  <SCORE.RESTR.norm>
0

>  <SCORE.SYSTEM>
0

>  <SCORE.SYSTEM.CONST>
0

>  <SCORE.SYSTEM.DIHEDRAL>
0

>  <SCORE.SYSTEM.norm>
0

>  <SCORE.heavy>
14

>  <SCORE.norm>
-0.595108

>  <XChemDeepScore>
0.987444

>  <SuCOS_Max_Score>
0.35333814144451642

>  <SuCOS_Max_FeatureMap_Score>
0.12745604232495159

>  <SuCOS_Max_Protrude_Score>
0.57922024056408128

>  <SuCOS_Max_Index>
1

>  <SuCOS_Cum_Score>
1.5480432494945815

>  <SuCOS_Cum_FeatureMap_Score>
0.21498493984105357

>  <SuCOS_Cum_Protrude_Score>
2.8811015591481093

$$$$
