CC(Cc1ccccc1)C(=O)NO
 OpenBabel03122003513D

 13 13  0  0  0  0  0  0  0  0999 V2000
   13.5906    4.2255   22.5013 C   0  0  0  0  0  0  0  0  0  0  0  0
   12.2928    3.7943   23.1959 C   0  0  1  0  0  0  0  0  0  0  0  0
   12.4960    2.5058   24.0197 C   0  0  0  0  0  0  0  0  0  0  0  0
   12.5781    1.2397   23.1912 C   0  0  0  0  0  0  0  0  0  0  0  0
   11.4898    0.8390   22.4059 C   0  0  0  0  0  0  0  0  0  0  0  0
   11.5530   -0.3361   21.6544 C   0  0  0  0  0  0  0  0  0  0  0  0
   12.7091   -1.1150   21.6718 C   0  0  0  0  0  0  0  0  0  0  0  0
   13.8031   -0.7171   22.4359 C   0  0  0  0  0  0  0  0  0  0  0  0
   13.7443    0.4600   23.1858 C   0  0  0  0  0  0  0  0  0  0  0  0
   11.7715    4.9248   24.0959 C   0  0  0  0  0  0  0  0  0  0  0  0
   10.7320    5.5235   23.8256 O   0  0  0  0  0  0  0  0  0  0  0  0
   12.6008    5.1288   25.1942 N   0  0  0  0  0  0  0  0  0  0  0  0
   12.2734    6.0810   26.1380 O   0  0  0  0  0  0  0  0  0  0  0  0
  2  1  1  1  0  0  0
  2  3  1  0  0  0  0
  2 10  1  0  0  0  0
  3  4  1  0  0  0  0
  4  5  2  0  0  0  0
  4  9  1  0  0  0  0
  5  6  1  0  0  0  0
  6  7  2  0  0  0  0
  7  8  1  0  0  0  0
  8  9  2  0  0  0  0
 10 11  2  0  0  0  0
 10 12  1  0  0  0  0
 12 13  1  0  0  0  0
M  END
>  <CHROM.1>
-75.70572205,111.95462811,-61.88065593,12.41949538,2.64277796,23.40346349
-1.69707669,0.48740167,-2.66189525

>  <Name>
CC(Cc1ccccc1)C(=O)NO

>  <RI>
0

>  <Rbt.Current_Directory>
/home/gse84885/github/im/docking-validation/targets/mpro/expts/jackall/work/Mpro-x0072_0/work/d9/0a0d942dd99ebd5b0411faf6dd7b95

>  <Rbt.Executable>
rbdock ($Id: //depot/dev/client3/rdock/2013.1/src/exe/rbdock.cxx#4 $)

>  <Rbt.Library>
libRbt.so (2013.1, Build901 2013/11/27)

>  <Rbt.Parameter_File>
/rDock_2013.1/data/scripts/dock.prm

>  <Rbt.Receptor>
docking-global.prm

>  <SCORE>
-8.49589

>  <SCORE.INTER>
-7.60621

>  <SCORE.INTER.CONST>
1

>  <SCORE.INTER.POLAR>
0

>  <SCORE.INTER.REPUL>
0.0298361

>  <SCORE.INTER.ROT>
3

>  <SCORE.INTER.VDW>
-16.1554

>  <SCORE.INTER.norm>
-0.585093

>  <SCORE.INTRA>
-0.889672

>  <SCORE.INTRA.DIHEDRAL>
0.913652

>  <SCORE.INTRA.DIHEDRAL.0>
1.3055

>  <SCORE.INTRA.POLAR>
0

>  <SCORE.INTRA.POLAR.0>
0

>  <SCORE.INTRA.REPUL>
0

>  <SCORE.INTRA.REPUL.0>
0

>  <SCORE.INTRA.VDW>
-1.3465

>  <SCORE.INTRA.VDW.0>
0.871988

>  <SCORE.INTRA.norm>
-0.0684363

>  <SCORE.RESTR>
0

>  <SCORE.RESTR.CAVITY>
0

>  <SCORE.RESTR.norm>
0

>  <SCORE.SYSTEM>
0

>  <SCORE.SYSTEM.CONST>
0

>  <SCORE.SYSTEM.DIHEDRAL>
0

>  <SCORE.SYSTEM.norm>
0

>  <SCORE.heavy>
13

>  <SCORE.norm>
-0.65353

>  <XChemDeepScore>
0.997572

>  <SuCOS_Max_Score>
0.45923513030494012

>  <SuCOS_Max_FeatureMap_Score>
0.33696880893007936

>  <SuCOS_Max_Protrude_Score>
0.58150145167980094

>  <SuCOS_Max_Index>
1

>  <SuCOS_Cum_Score>
1.8930441392056478

>  <SuCOS_Cum_FeatureMap_Score>
0.93599985864919788

>  <SuCOS_Cum_Protrude_Score>
2.8500884197620975

$$$$
