C[C@H](OCc1ccccc1)[C@@H](N)C(=O)Cc1ccncc1
 OpenBabel03122003513D

 21 22  0  0  0  0  0  0  0  0999 V2000
   11.2293   -0.9628   22.5183 C   0  0  0  0  0  0  0  0  0  0  0  0
   10.9166    0.0819   23.6005 C   0  0  2  0  0  0  0  0  0  0  0  0
   11.8743    1.1639   23.5377 O   0  0  0  0  0  0  0  0  0  0  0  0
   11.5814    2.0851   22.4736 C   0  0  0  0  0  0  0  0  0  0  0  0
   12.3431    3.3829   22.5804 C   0  0  0  0  0  0  0  0  0  0  0  0
   12.7271    3.9150   23.8177 C   0  0  0  0  0  0  0  0  0  0  0  0
   13.5294    5.0567   23.8804 C   0  0  0  0  0  0  0  0  0  0  0  0
   13.9669    5.6715   22.7079 C   0  0  0  0  0  0  0  0  0  0  0  0
   13.6082    5.1430   21.4702 C   0  0  0  0  0  0  0  0  0  0  0  0
   12.8057    4.0026   21.4066 C   0  0  0  0  0  0  0  0  0  0  0  0
   10.9492   -0.5728   25.0181 C   0  0  1  0  0  0  0  0  0  0  0  0
   11.5191    0.3295   26.0524 N   0  0  0  0  0  0  0  0  0  0  0  0
    9.5266   -0.9472   25.4645 C   0  0  0  0  0  0  0  0  0  0  0  0
    8.9040   -0.2874   26.3045 O   0  0  0  0  0  0  0  0  0  0  0  0
    8.8807   -2.1721   24.8261 C   0  0  0  0  0  0  0  0  0  0  0  0
    9.3668   -3.4671   25.4548 C   0  0  0  0  0  0  0  0  0  0  0  0
   10.2025   -4.3354   24.7426 C   0  0  0  0  0  0  0  0  0  0  0  0
   10.5815   -5.5483   25.3047 C   0  0  0  0  0  0  0  0  0  0  0  0
   10.1692   -5.8656   26.5410 N   0  0  0  0  0  0  0  0  0  0  0  0
    9.3880   -5.0522   27.2663 C   0  0  0  0  0  0  0  0  0  0  0  0
    8.9653   -3.8370   26.7412 C   0  0  0  0  0  0  0  0  0  0  0  0
  2 11  1  0  0  0  0
  2  3  1  0  0  0  0
  2  1  1  6  0  0  0
  3  4  1  0  0  0  0
  4  5  1  0  0  0  0
  5  6  2  0  0  0  0
  5 10  1  0  0  0  0
  6  7  1  0  0  0  0
  7  8  2  0  0  0  0
  8  9  1  0  0  0  0
  9 10  2  0  0  0  0
 11 12  1  1  0  0  0
 11 13  1  0  0  0  0
 13 14  2  0  0  0  0
 13 15  1  0  0  0  0
 15 16  1  0  0  0  0
 16 17  2  0  0  0  0
 16 21  1  0  0  0  0
 17 18  1  0  0  0  0
 18 19  2  0  0  0  0
 19 20  1  0  0  0  0
 20 21  2  0  0  0  0
M  END
>  <CHROM.1>
142.97781377,78.49680542,166.08223682,-30.00890833,-104.43150980,79.91286785
-109.55932973,11.08227690,-0.11578560,24.37258798,-2.45659525,1.10645039
0.45028554

>  <Name>
C[C@H](OCc1ccccc1)[C@@H](N)C(=O)Cc1ccncc1

>  <RI>
0

>  <Rbt.Current_Directory>
/home/gse84885/github/im/docking-validation/targets/mpro/expts/jackall/work/Mpro-x0072_0/work/4c/91d2aa3d757547917c19cdcea5370f

>  <Rbt.Executable>
rbdock ($Id: //depot/dev/client3/rdock/2013.1/src/exe/rbdock.cxx#4 $)

>  <Rbt.Library>
libRbt.so (2013.1, Build901 2013/11/27)

>  <Rbt.Parameter_File>
/rDock_2013.1/data/scripts/dock.prm

>  <Rbt.Receptor>
docking-global.prm

>  <SCORE>
-11.2856

>  <SCORE.INTER>
-11.5713

>  <SCORE.INTER.CONST>
1

>  <SCORE.INTER.POLAR>
0

>  <SCORE.INTER.REPUL>
0

>  <SCORE.INTER.ROT>
7

>  <SCORE.INTER.VDW>
-23.9713

>  <SCORE.INTER.norm>
-0.551015

>  <SCORE.INTRA>
0.285726

>  <SCORE.INTRA.DIHEDRAL>
5.11358

>  <SCORE.INTRA.DIHEDRAL.0>
4.19288

>  <SCORE.INTRA.POLAR>
0

>  <SCORE.INTRA.POLAR.0>
0

>  <SCORE.INTRA.REPUL>
0

>  <SCORE.INTRA.REPUL.0>
0

>  <SCORE.INTRA.VDW>
-2.27106

>  <SCORE.INTRA.VDW.0>
0.932951

>  <SCORE.INTRA.norm>
0.013606

>  <SCORE.RESTR>
0

>  <SCORE.RESTR.CAVITY>
0

>  <SCORE.RESTR.norm>
0

>  <SCORE.SYSTEM>
0

>  <SCORE.SYSTEM.CONST>
0

>  <SCORE.SYSTEM.DIHEDRAL>
0

>  <SCORE.SYSTEM.norm>
0

>  <SCORE.heavy>
21

>  <SCORE.norm>
-0.537409

>  <XChemDeepScore>
0.977819

>  <SuCOS_Max_Score>
0.32097197545954026

>  <SuCOS_Max_FeatureMap_Score>
0.10951687643593136

>  <SuCOS_Max_Protrude_Score>
0.53242707448314919

>  <SuCOS_Max_Index>
4

>  <SuCOS_Cum_Score>
1.6586554244496556

>  <SuCOS_Cum_FeatureMap_Score>
0.20885370074834625

>  <SuCOS_Cum_Protrude_Score>
3.1084571481509653

$$$$
