COC(=O)c1cccc(C[S+]([O-])Cl)c1
 OpenBabel03122003513D

 14 14  0  0  0  0  0  0  0  0999 V2000
   13.6015   -0.6605   22.4253 C   0  0  0  0  0  0  0  0  0  0  0  0
   12.3973    0.0305   22.0901 O   0  0  0  0  0  0  0  0  0  0  0  0
   11.3664   -0.7813   21.7458 C   0  0  0  0  0  0  0  0  0  0  0  0
   11.4010   -1.9998   21.6949 O   0  0  0  0  0  0  0  0  0  0  0  0
   10.1633    0.0239   21.3972 C   0  0  0  0  0  0  0  0  0  0  0  0
   10.1672    1.3883   21.7164 C   0  0  0  0  0  0  0  0  0  0  0  0
    9.0532    2.1798   21.4374 C   0  0  0  0  0  0  0  0  0  0  0  0
    7.9284    1.6124   20.8408 C   0  0  0  0  0  0  0  0  0  0  0  0
    7.9028    0.2484   20.5133 C   0  0  0  0  0  0  0  0  0  0  0  0
    6.6573   -0.3608   19.9180 C   0  0  0  0  0  0  0  0  0  0  0  0
    6.7967   -0.5569   18.0992 S   0  0  1  0  0  0  0  0  0  0  0  0
    5.2216   -0.8165   17.8731 O   0  0  0  0  0  0  0  0  0  0  0  0
    6.8842    1.3431   17.5453 Cl  0  0  0  0  0  0  0  0  0  0  0  0
    9.0295   -0.5407   20.7925 C   0  0  0  0  0  0  0  0  0  0  0  0
  1  2  1  0  0  0  0
  2  3  1  0  0  0  0
  3  4  2  0  0  0  0
  3  5  1  0  0  0  0
  5  6  2  0  0  0  0
  5 14  1  0  0  0  0
  6  7  1  0  0  0  0
  7  8  2  0  0  0  0
  8  9  1  0  0  0  0
  9 10  1  0  0  0  0
  9 14  2  0  0  0  0
 10 11  1  0  0  0  0
 11 12  1  6  0  0  0
 11 13  1  0  0  0  0
M  END
>  <CHROM.1>
-0.64576979,-12.34008910,100.62940091,-165.60933836,8.80458713,0.10523554
20.08645734,-0.04384500,0.62705378,-2.91382927

>  <Name>
COC(=O)c1cccc(C[S+]([O-])Cl)c1

>  <RI>
0

>  <Rbt.Current_Directory>
/home/gse84885/github/im/docking-validation/targets/mpro/expts/jackall/work/Mpro-x0072_0/work/89/86e7149ae0e9b830113c403169f2e6

>  <Rbt.Executable>
rbdock ($Id: //depot/dev/client3/rdock/2013.1/src/exe/rbdock.cxx#4 $)

>  <Rbt.Library>
libRbt.so (2013.1, Build901 2013/11/27)

>  <Rbt.Parameter_File>
/rDock_2013.1/data/scripts/dock.prm

>  <Rbt.Receptor>
docking-global.prm

>  <SCORE>
-7.53042

>  <SCORE.INTER>
-7.72667

>  <SCORE.INTER.CONST>
1

>  <SCORE.INTER.POLAR>
0

>  <SCORE.INTER.REPUL>
0.00364373

>  <SCORE.INTER.ROT>
4

>  <SCORE.INTER.VDW>
-17.1449

>  <SCORE.INTER.norm>
-0.551905

>  <SCORE.INTRA>
0.196245

>  <SCORE.INTRA.DIHEDRAL>
0.291402

>  <SCORE.INTRA.DIHEDRAL.0>
1.23477

>  <SCORE.INTRA.POLAR>
0

>  <SCORE.INTRA.POLAR.0>
0

>  <SCORE.INTRA.REPUL>
0

>  <SCORE.INTRA.REPUL.0>
0

>  <SCORE.INTRA.VDW>
0.0505435

>  <SCORE.INTRA.VDW.0>
0.905616

>  <SCORE.INTRA.norm>
0.0140175

>  <SCORE.RESTR>
0

>  <SCORE.RESTR.CAVITY>
0

>  <SCORE.RESTR.norm>
0

>  <SCORE.SYSTEM>
0

>  <SCORE.SYSTEM.CONST>
0

>  <SCORE.SYSTEM.DIHEDRAL>
0

>  <SCORE.SYSTEM.norm>
0

>  <SCORE.heavy>
14

>  <SCORE.norm>
-0.537887

>  <XChemDeepScore>
0.972473

>  <SuCOS_Max_Score>
0.30880686929726853

>  <SuCOS_Max_FeatureMap_Score>
0.0026616353042413512

>  <SuCOS_Max_Protrude_Score>
0.6149521032902957

>  <SuCOS_Max_Index>
5

>  <SuCOS_Cum_Score>
1.2184095990975568

>  <SuCOS_Cum_FeatureMap_Score>
0.024934870554819258

>  <SuCOS_Cum_Protrude_Score>
2.4118843276402941

$$$$
