CC(Sc1ccccc1)C(=O)NO
 OpenBabel03122003513D

 13 13  0  0  0  0  0  0  0  0999 V2000
   11.3699   -0.8358   21.8022 C   0  0  0  0  0  0  0  0  0  0  0  0
   12.1477    0.4426   22.1136 C   0  0  1  0  0  0  0  0  0  0  0  0
   11.1013    1.9338   21.7882 S   0  0  0  0  0  0  0  0  0  0  0  0
   12.2172    3.2547   22.2257 C   0  0  0  0  0  0  0  0  0  0  0  0
   12.4975    3.4744   23.5792 C   0  0  0  0  0  0  0  0  0  0  0  0
   13.3773    4.4864   23.9676 C   0  0  0  0  0  0  0  0  0  0  0  0
   13.9945    5.2801   23.0023 C   0  0  0  0  0  0  0  0  0  0  0  0
   13.7308    5.0600   21.6507 C   0  0  0  0  0  0  0  0  0  0  0  0
   12.8476    4.0487   21.2615 C   0  0  0  0  0  0  0  0  0  0  0  0
   12.6241    0.4407   23.5810 C   0  0  0  0  0  0  0  0  0  0  0  0
   13.8240    0.4723   23.8609 O   0  0  0  0  0  0  0  0  0  0  0  0
   11.5492    0.5151   24.4729 N   0  0  0  0  0  0  0  0  0  0  0  0
   11.8071    0.4429   25.8315 O   0  0  0  0  0  0  0  0  0  0  0  0
  2  1  1  1  0  0  0
  2  3  1  0  0  0  0
  2 10  1  0  0  0  0
  3  4  1  0  0  0  0
  4  5  2  0  0  0  0
  4  9  1  0  0  0  0
  5  6  1  0  0  0  0
  6  7  2  0  0  0  0
  7  8  1  0  0  0  0
  8  9  2  0  0  0  0
 10 11  2  0  0  0  0
 10 12  1  0  0  0  0
 12 13  1  0  0  0  0
M  END
>  <CHROM.1>
179.82317500,118.47082326,-72.93612828,12.39678977,2.11233161,22.94343117
2.25771888,1.08890349,2.27246169

>  <Name>
CC(Sc1ccccc1)C(=O)NO

>  <RI>
0

>  <Rbt.Current_Directory>
/home/gse84885/github/im/docking-validation/targets/mpro/expts/jackall/work/Mpro-x0072_0/work/dc/73d03adb4a7fa085ab18bffee1fbc7

>  <Rbt.Executable>
rbdock ($Id: //depot/dev/client3/rdock/2013.1/src/exe/rbdock.cxx#4 $)

>  <Rbt.Library>
libRbt.so (2013.1, Build901 2013/11/27)

>  <Rbt.Parameter_File>
/rDock_2013.1/data/scripts/dock.prm

>  <Rbt.Receptor>
docking-global.prm

>  <SCORE>
-10.6644

>  <SCORE.INTER>
-8.95236

>  <SCORE.INTER.CONST>
1

>  <SCORE.INTER.POLAR>
0

>  <SCORE.INTER.REPUL>
0

>  <SCORE.INTER.ROT>
3

>  <SCORE.INTER.VDW>
-17.3524

>  <SCORE.INTER.norm>
-0.688643

>  <SCORE.INTRA>
-1.712

>  <SCORE.INTRA.DIHEDRAL>
-0.063397

>  <SCORE.INTRA.DIHEDRAL.0>
2.82253

>  <SCORE.INTRA.POLAR>
0

>  <SCORE.INTRA.POLAR.0>
0

>  <SCORE.INTRA.REPUL>
0

>  <SCORE.INTRA.REPUL.0>
0

>  <SCORE.INTRA.VDW>
-1.6803

>  <SCORE.INTRA.VDW.0>
0.179007

>  <SCORE.INTRA.norm>
-0.131692

>  <SCORE.RESTR>
0

>  <SCORE.RESTR.CAVITY>
0

>  <SCORE.RESTR.norm>
0

>  <SCORE.SYSTEM>
0

>  <SCORE.SYSTEM.CONST>
0

>  <SCORE.SYSTEM.DIHEDRAL>
0

>  <SCORE.SYSTEM.norm>
0

>  <SCORE.heavy>
13

>  <SCORE.norm>
-0.820335

>  <XChemDeepScore>
0.973598

>  <SuCOS_Max_Score>
0.28519299012241695

>  <SuCOS_Max_FeatureMap_Score>
0.092260332307865289

>  <SuCOS_Max_Protrude_Score>
0.47812564793696866

>  <SuCOS_Max_Index>
1

>  <SuCOS_Cum_Score>
1.4670171100419456

>  <SuCOS_Cum_FeatureMap_Score>
0.2448959569269932

>  <SuCOS_Cum_Protrude_Score>
2.6891382631568979

$$$$
