N=C(N)NC(=N)NCc1ccc(S(N)(=O)=O)cc1
 OpenBabel03122003533D

 32 32  0  0  0  0  0  0  0  0999 V2000
    9.6341   -2.7386   22.4012 N   0  0  0  0  0  0  0  0  0  0  0  0
   10.6951   -2.6024   23.1004 C   0  0  0  0  0  0  0  0  0  0  0  0
   11.7661   -1.8173   22.8772 N   0  0  0  0  0  0  0  0  0  0  0  0
   11.9083   -0.9190   21.7496 C   0  0  0  0  0  0  0  0  0  0  0  0
   12.0241    0.5031   22.2443 C   0  0  0  0  0  0  0  0  0  0  0  0
   11.3233    1.5359   21.5988 C   0  0  0  0  0  0  0  0  0  0  0  0
   11.4242    2.8525   22.0525 C   0  0  0  0  0  0  0  0  0  0  0  0
   12.2267    3.1435   23.1574 C   0  0  0  0  0  0  0  0  0  0  0  0
   12.3676    4.8204   23.7138 S   0  0  0  0  0  0  0  0  0  0  0  0
   10.8238    5.4107   23.4324 N   0  0  0  0  0  0  0  0  0  0  0  0
   12.5525    4.8223   25.1453 O   0  0  0  0  0  0  0  0  0  0  0  0
   13.2468    5.5320   22.8151 O   0  0  0  0  0  0  0  0  0  0  0  0
   12.9552    2.1349   23.7930 C   0  0  0  0  0  0  0  0  0  0  0  0
   12.8525    0.8179   23.3343 C   0  0  0  0  0  0  0  0  0  0  0  0
   10.7885   -3.3365   24.2891 N   0  0  0  0  0  0  0  0  0  0  0  0
    9.9027   -4.2116   24.7845 C   0  0  0  0  0  0  0  0  0  0  0  0
   10.1354   -4.7901   25.9708 N   0  0  0  0  0  0  0  0  0  0  0  0
    8.7896   -4.5282   24.1305 N   0  0  0  0  0  0  0  0  0  0  0  0
    9.5320   -2.2389   21.5591 H   0  0  0  0  0  0  0  0  0  0  0  0
   12.5051   -1.8566   23.5265 H   0  0  0  0  0  0  0  0  0  0  0  0
   11.0513   -1.0063   21.1149 H   0  0  0  0  0  0  0  0  0  0  0  0
   12.7896   -1.1763   21.2001 H   0  0  0  0  0  0  0  0  0  0  0  0
   10.7294    1.3196   20.7830 H   0  0  0  0  0  0  0  0  0  0  0  0
   10.9081    3.6069   21.5735 H   0  0  0  0  0  0  0  0  0  0  0  0
   10.1614    4.9369   24.0465 H   0  0  0  0  0  0  0  0  0  0  0  0
   10.5670    5.2412   22.4599 H   0  0  0  0  0  0  0  0  0  0  0  0
   13.5645    2.3601   24.5949 H   0  0  0  0  0  0  0  0  0  0  0  0
   13.3901    0.0705   23.8007 H   0  0  0  0  0  0  0  0  0  0  0  0
   11.6019   -3.1926   24.8248 H   0  0  0  0  0  0  0  0  0  0  0  0
   10.9532   -4.5710   26.4733 H   0  0  0  0  0  0  0  0  0  0  0  0
    9.4886   -5.4341   26.3397 H   0  0  0  0  0  0  0  0  0  0  0  0
    8.5975   -4.1159   23.2574 H   0  0  0  0  0  0  0  0  0  0  0  0
  1  2  2  0  0  0  0
  1 19  1  0  0  0  0
  2  3  1  0  0  0  0
  2 15  1  0  0  0  0
  3  4  1  0  0  0  0
  3 20  1  0  0  0  0
  4  5  1  0  0  0  0
  4 21  1  0  0  0  0
  4 22  1  0  0  0  0
  5  6  2  0  0  0  0
  5 14  1  0  0  0  0
  6  7  1  0  0  0  0
  6 23  1  0  0  0  0
  7  8  2  0  0  0  0
  7 24  1  0  0  0  0
  8  9  1  0  0  0  0
  8 13  1  0  0  0  0
  9 10  1  0  0  0  0
  9 11  2  0  0  0  0
  9 12  2  0  0  0  0
 10 25  1  0  0  0  0
 10 26  1  0  0  0  0
 13 14  2  0  0  0  0
 13 27  1  0  0  0  0
 14 28  1  0  0  0  0
 15 16  1  0  0  0  0
 15 29  1  0  0  0  0
 16 17  1  0  0  0  0
 16 18  2  0  0  0  0
 17 30  1  0  0  0  0
 17 31  1  0  0  0  0
 18 32  1  0  0  0  0
M  END
>  <CHROM.1>
118.05783749,-136.99253012,35.87535046,11.49558619,0.76098941,23.41073703
-2.86277524,1.30197422,1.21387277

>  <Name>
N=C(N)NC(=N)NCc1ccc(S(N)(=O)=O)cc1

>  <RI>
0

>  <Rbt.Current_Directory>
/home/gse84885/github/im/docking-validation/targets/mpro/expts/jackall/work/Mpro-x0072_0/work/aa/2064aa8afc11034667ac413ec73519

>  <Rbt.Executable>
rbdock ($Id: //depot/dev/client3/rdock/2013.1/src/exe/rbdock.cxx#4 $)

>  <Rbt.Library>
libRbt.so (2013.1, Build901 2013/11/27)

>  <Rbt.Parameter_File>
/rDock_2013.1/data/scripts/dock.prm

>  <Rbt.Receptor>
docking-global.prm

>  <SCORE>
-11.9623

>  <SCORE.INTER>
-10.7273

>  <SCORE.INTER.CONST>
1

>  <SCORE.INTER.POLAR>
0

>  <SCORE.INTER.REPUL>
0.0146112

>  <SCORE.INTER.ROT>
3

>  <SCORE.INTER.VDW>
-19.2003

>  <SCORE.INTER.norm>
-0.59596

>  <SCORE.INTRA>
-1.23499

>  <SCORE.INTRA.DIHEDRAL>
-2.51043

>  <SCORE.INTRA.DIHEDRAL.0>
4.38687

>  <SCORE.INTRA.POLAR>
0

>  <SCORE.INTRA.POLAR.0>
0

>  <SCORE.INTRA.REPUL>
0

>  <SCORE.INTRA.REPUL.0>
0

>  <SCORE.INTRA.VDW>
0.0202247

>  <SCORE.INTRA.VDW.0>
-0.964007

>  <SCORE.INTRA.norm>
-0.0686106

>  <SCORE.RESTR>
0

>  <SCORE.RESTR.CAVITY>
0

>  <SCORE.RESTR.norm>
0

>  <SCORE.SYSTEM>
0

>  <SCORE.SYSTEM.CONST>
0

>  <SCORE.SYSTEM.DIHEDRAL>
0

>  <SCORE.SYSTEM.norm>
0

>  <SCORE.heavy>
18

>  <SCORE.norm>
-0.664571

>  <XChemDeepScore>
0.995152

>  <SuCOS_Max_Score>
0.42989035652587826

>  <SuCOS_Max_FeatureMap_Score>
0.31265917787051983

>  <SuCOS_Max_Protrude_Score>
0.54712153518123663

>  <SuCOS_Max_Index>
3

>  <SuCOS_Cum_Score>
1.9501615320791363

>  <SuCOS_Cum_FeatureMap_Score>
0.67655676202015769

>  <SuCOS_Cum_Protrude_Score>
3.2237663021381149

$$$$
