O=C(O)C=C(CCc1ccccc1)c1ccncc1
 OpenBabel03122003513D

 19 20  0  0  0  0  0  0  0  0999 V2000
   10.5649   -4.2067   24.9213 O   0  0  0  0  0  0  0  0  0  0  0  0
    9.9919   -3.5942   23.9811 C   0  0  0  0  0  0  0  0  0  0  0  0
    9.0182   -3.9263   23.2555 O   0  0  0  0  0  0  0  0  0  0  0  0
   10.6198   -2.2268   23.6884 C   0  0  0  0  0  0  0  0  0  0  0  0
   10.4206   -1.3558   22.6825 C   0  0  0  0  0  0  0  0  0  0  0  0
    9.4767   -1.4735   21.5064 C   0  0  0  0  0  0  0  0  0  0  0  0
    8.2630   -0.5377   21.5852 C   0  0  0  0  0  0  0  0  0  0  0  0
    7.3901   -0.6288   20.3539 C   0  0  0  0  0  0  0  0  0  0  0  0
    6.2736   -1.4760   20.3534 C   0  0  0  0  0  0  0  0  0  0  0  0
    5.4607   -1.5764   19.2232 C   0  0  0  0  0  0  0  0  0  0  0  0
    5.7599   -0.8360   18.0811 C   0  0  0  0  0  0  0  0  0  0  0  0
    6.8686    0.0097   18.0709 C   0  0  0  0  0  0  0  0  0  0  0  0
    7.6817    0.1131   19.2020 C   0  0  0  0  0  0  0  0  0  0  0  0
   11.2604   -0.1544   22.7359 C   0  0  0  0  0  0  0  0  0  0  0  0
   12.1107    0.0516   23.8213 C   0  0  0  0  0  0  0  0  0  0  0  0
   12.7959    1.2512   23.9139 C   0  0  0  0  0  0  0  0  0  0  0  0
   12.6349    2.1893   22.9662 N   0  0  0  0  0  0  0  0  0  0  0  0
   11.8238    2.0159   21.9092 C   0  0  0  0  0  0  0  0  0  0  0  0
   11.1145    0.8365   21.7673 C   0  0  0  0  0  0  0  0  0  0  0  0
  1  2  2  0  0  0  0
  2  3  1  0  0  0  0
  2  4  1  0  0  0  0
  4  5  2  0  0  0  0
  5  6  1  0  0  0  0
  5 14  1  0  0  0  0
  6  7  1  0  0  0  0
  7  8  1  0  0  0  0
  8  9  2  0  0  0  0
  8 13  1  0  0  0  0
  9 10  1  0  0  0  0
 10 11  2  0  0  0  0
 11 12  1  0  0  0  0
 12 13  2  0  0  0  0
 14 15  2  0  0  0  0
 14 19  1  0  0  0  0
 15 16  1  0  0  0  0
 16 17  2  0  0  0  0
 17 18  1  0  0  0  0
 18 19  2  0  0  0  0
M  END
>  <CHROM.1>
170.58109682,107.95759611,-4.19172314,176.63731838,95.26104046,9.45982033
-0.87378995,21.83705063,0.30656182,0.64410892,2.55828371

>  <Name>
O=C(O)C=C(CCc1ccccc1)c1ccncc1

>  <RI>
0

>  <Rbt.Current_Directory>
/home/gse84885/github/im/docking-validation/targets/mpro/expts/jackall/work/Mpro-x0072_0/work/a9/4bbf3f14b749c2ebf10bc96299ec63

>  <Rbt.Executable>
rbdock ($Id: //depot/dev/client3/rdock/2013.1/src/exe/rbdock.cxx#4 $)

>  <Rbt.Library>
libRbt.so (2013.1, Build901 2013/11/27)

>  <Rbt.Parameter_File>
/rDock_2013.1/data/scripts/dock.prm

>  <Rbt.Receptor>
docking-global.prm

>  <SCORE>
-14.6406

>  <SCORE.INTER>
-10.5789

>  <SCORE.INTER.CONST>
1

>  <SCORE.INTER.POLAR>
0

>  <SCORE.INTER.REPUL>
0.000335933

>  <SCORE.INTER.ROT>
5

>  <SCORE.INTER.VDW>
-20.9806

>  <SCORE.INTER.norm>
-0.556787

>  <SCORE.INTRA>
-4.0617

>  <SCORE.INTRA.DIHEDRAL>
-14.8334

>  <SCORE.INTRA.DIHEDRAL.0>
16.2206

>  <SCORE.INTRA.POLAR>
0

>  <SCORE.INTRA.POLAR.0>
0

>  <SCORE.INTRA.REPUL>
0

>  <SCORE.INTRA.REPUL.0>
0

>  <SCORE.INTRA.VDW>
3.35498

>  <SCORE.INTRA.VDW.0>
-1.70978

>  <SCORE.INTRA.norm>
-0.213774

>  <SCORE.RESTR>
0

>  <SCORE.RESTR.CAVITY>
0

>  <SCORE.RESTR.norm>
0

>  <SCORE.SYSTEM>
0

>  <SCORE.SYSTEM.CONST>
0

>  <SCORE.SYSTEM.DIHEDRAL>
0

>  <SCORE.SYSTEM.norm>
0

>  <SCORE.heavy>
19

>  <SCORE.norm>
-0.77056

>  <XChemDeepScore>
0.984851

>  <SuCOS_Max_Score>
0.38533380556563984

>  <SuCOS_Max_FeatureMap_Score>
0.20093050497033252

>  <SuCOS_Max_Protrude_Score>
0.56973710616094719

>  <SuCOS_Max_Index>
6

>  <SuCOS_Cum_Score>
1.8993537357779209

>  <SuCOS_Cum_FeatureMap_Score>
0.66293176079642324

>  <SuCOS_Cum_Protrude_Score>
3.1357757107594177

$$$$
