N=C(NO)Nc1cccc(S(N)(=O)=O)c1
 OpenBabel03122003513D

 15 15  0  0  0  0  0  0  0  0999 V2000
    8.7194   -0.2883   19.6787 N   0  0  0  0  0  0  0  0  0  0  0  0
    9.1677    0.4661   20.6354 C   0  0  0  0  0  0  0  0  0  0  0  0
    8.4360    1.4915   21.1680 N   0  0  0  0  0  0  0  0  0  0  0  0
    7.1482    1.6095   20.6337 O   0  0  0  0  0  0  0  0  0  0  0  0
   10.3977    0.1974   21.1426 N   0  0  0  0  0  0  0  0  0  0  0  0
   11.2829    0.9431   21.9367 C   0  0  0  0  0  0  0  0  0  0  0  0
   12.3220    0.2578   22.5929 C   0  0  0  0  0  0  0  0  0  0  0  0
   13.2002    0.9103   23.4655 C   0  0  0  0  0  0  0  0  0  0  0  0
   13.0571    2.2716   23.7017 C   0  0  0  0  0  0  0  0  0  0  0  0
   12.0470    2.9667   23.0396 C   0  0  0  0  0  0  0  0  0  0  0  0
   11.8974    4.7114   23.2629 S   0  0  0  0  0  0  0  0  0  0  0  0
   10.2627    4.9268   22.9570 N   0  0  0  0  0  0  0  0  0  0  0  0
   12.0955    5.0307   24.6565 O   0  0  0  0  0  0  0  0  0  0  0  0
   12.6000    5.3916   22.1999 O   0  0  0  0  0  0  0  0  0  0  0  0
   11.1552    2.3118   22.1804 C   0  0  0  0  0  0  0  0  0  0  0  0
  1  2  2  0  0  0  0
  2  3  1  0  0  0  0
  2  5  1  0  0  0  0
  3  4  1  0  0  0  0
  5  6  1  0  0  0  0
  6  7  2  0  0  0  0
  6 15  1  0  0  0  0
  7  8  1  0  0  0  0
  8  9  2  0  0  0  0
  9 10  1  0  0  0  0
 10 11  1  0  0  0  0
 10 15  2  0  0  0  0
 11 12  1  0  0  0  0
 11 13  2  0  0  0  0
 11 14  2  0  0  0  0
M  END
>  <CHROM.1>
163.12124691,-153.63153773,10.96552110,2.49611357,22.30417641,2.27125397
0.47577043,-2.88457595

>  <Name>
N=C(NO)Nc1cccc(S(N)(=O)=O)c1

>  <RI>
0

>  <Rbt.Current_Directory>
/home/gse84885/github/im/docking-validation/targets/mpro/expts/jackall/work/Mpro-x0072_0/work/08/06f24bc6fe1494d8a225ab1f208fe4

>  <Rbt.Executable>
rbdock ($Id: //depot/dev/client3/rdock/2013.1/src/exe/rbdock.cxx#4 $)

>  <Rbt.Library>
libRbt.so (2013.1, Build901 2013/11/27)

>  <Rbt.Parameter_File>
/rDock_2013.1/data/scripts/dock.prm

>  <Rbt.Receptor>
docking-global.prm

>  <SCORE>
-7.45494

>  <SCORE.INTER>
-7.56155

>  <SCORE.INTER.CONST>
1

>  <SCORE.INTER.POLAR>
0

>  <SCORE.INTER.REPUL>
0.0457808

>  <SCORE.INTER.ROT>
2

>  <SCORE.INTER.VDW>
-15.1905

>  <SCORE.INTER.norm>
-0.504104

>  <SCORE.INTRA>
0.106612

>  <SCORE.INTRA.DIHEDRAL>
0.140595

>  <SCORE.INTRA.DIHEDRAL.0>
1.46472

>  <SCORE.INTRA.POLAR>
0

>  <SCORE.INTRA.POLAR.0>
0

>  <SCORE.INTRA.REPUL>
0

>  <SCORE.INTRA.REPUL.0>
0

>  <SCORE.INTRA.VDW>
0.0363146

>  <SCORE.INTRA.VDW.0>
-0.851437

>  <SCORE.INTRA.norm>
0.00710746

>  <SCORE.RESTR>
0

>  <SCORE.RESTR.CAVITY>
0

>  <SCORE.RESTR.norm>
0

>  <SCORE.SYSTEM>
0

>  <SCORE.SYSTEM.CONST>
0

>  <SCORE.SYSTEM.DIHEDRAL>
0

>  <SCORE.SYSTEM.norm>
0

>  <SCORE.heavy>
15

>  <SCORE.norm>
-0.496996

>  <XChemDeepScore>
0.999370

>  <SuCOS_Max_Score>
0.35672854608419058

>  <SuCOS_Max_FeatureMap_Score>
0.25326126415646116

>  <SuCOS_Max_Protrude_Score>
0.46019582801191994

>  <SuCOS_Max_Index>
3

>  <SuCOS_Cum_Score>
1.5590660529221971

>  <SuCOS_Cum_FeatureMap_Score>
0.54283929704849254

>  <SuCOS_Cum_Protrude_Score>
2.5752928087959015

$$$$
