CCC(N)C(F)CCCc1ccccc1
 OpenBabel03122003533D

 35 35  0  0  0  0  0  0  0  0999 V2000
   12.5486    3.3410   23.6138 C   0  0  0  0  0  0  0  0  0  0  0  0
   12.3950    2.0766   22.7838 C   0  0  0  0  0  0  0  0  0  0  0  0
   13.2092    0.8823   23.3226 C   0  0  1  0  0  0  0  0  0  0  0  0
   12.7132    0.4335   24.6296 N   0  0  0  0  0  0  0  0  0  0  0  0
   13.1896   -0.2489   22.2736 C   0  0  1  0  0  0  0  0  0  0  0  0
   14.1754   -1.1215   22.6392 F   0  0  0  0  0  0  0  0  0  0  0  0
   11.8610   -1.0053   22.2136 C   0  0  0  0  0  0  0  0  0  0  0  0
   10.7653   -0.2263   21.4798 C   0  0  0  0  0  0  0  0  0  0  0  0
    9.4578   -1.0103   21.3486 C   0  0  0  0  0  0  0  0  0  0  0  0
    8.4409   -0.2760   20.5204 C   0  0  0  0  0  0  0  0  0  0  0  0
    8.4856   -0.3716   19.1225 C   0  0  0  0  0  0  0  0  0  0  0  0
    7.5571    0.3087   18.3431 C   0  0  0  0  0  0  0  0  0  0  0  0
    6.5781    1.0909   18.9542 C   0  0  0  0  0  0  0  0  0  0  0  0
    6.5261    1.1888   20.3448 C   0  0  0  0  0  0  0  0  0  0  0  0
    7.4555    0.5059   21.1280 C   0  0  0  0  0  0  0  0  0  0  0  0
   11.9592    4.1237   23.1838 H   0  0  0  0  0  0  0  0  0  0  0  0
   13.5771    3.6356   23.6279 H   0  0  0  0  0  0  0  0  0  0  0  0
   12.2175    3.1536   24.6139 H   0  0  0  0  0  0  0  0  0  0  0  0
   12.7202    2.2852   21.7860 H   0  0  0  0  0  0  0  0  0  0  0  0
   11.3629    1.7973   22.8251 H   0  0  0  0  0  0  0  0  0  0  0  0
   14.2221    1.1875   23.4829 H   0  0  0  0  0  0  0  0  0  0  0  0
   11.7443    0.1280   24.5389 H   0  0  0  0  0  0  0  0  0  0  0  0
   12.7659    1.2039   25.2961 H   0  0  0  0  0  0  0  0  0  0  0  0
   13.3330    0.1783   21.3031 H   0  0  0  0  0  0  0  0  0  0  0  0
   11.5321   -1.1977   23.2134 H   0  0  0  0  0  0  0  0  0  0  0  0
   12.0309   -1.9109   21.6695 H   0  0  0  0  0  0  0  0  0  0  0  0
   11.1177    0.0151   20.4988 H   0  0  0  0  0  0  0  0  0  0  0  0
   10.5557    0.6502   22.0567 H   0  0  0  0  0  0  0  0  0  0  0  0
    9.0539   -1.1743   22.3258 H   0  0  0  0  0  0  0  0  0  0  0  0
    9.6758   -1.9365   20.8591 H   0  0  0  0  0  0  0  0  0  0  0  0
    9.2110   -0.9496   18.6700 H   0  0  0  0  0  0  0  0  0  0  0  0
    7.5924    0.2349   17.3143 H   0  0  0  0  0  0  0  0  0  0  0  0
    5.8902    1.5987   18.3764 H   0  0  0  0  0  0  0  0  0  0  0  0
    5.7991    1.7672   20.7941 H   0  0  0  0  0  0  0  0  0  0  0  0
    7.4155    0.5780   22.1567 H   0  0  0  0  0  0  0  0  0  0  0  0
  1  2  1  0  0  0  0
  1 16  1  0  0  0  0
  1 17  1  0  0  0  0
  1 18  1  0  0  0  0
  2  3  1  0  0  0  0
  2 19  1  0  0  0  0
  2 20  1  0  0  0  0
  3  4  1  0  0  0  0
  3  5  1  0  0  0  0
  3 21  1  1  0  0  0
  4 22  1  0  0  0  0
  4 23  1  0  0  0  0
  5  6  1  0  0  0  0
  5  7  1  0  0  0  0
  5 24  1  6  0  0  0
  7  8  1  0  0  0  0
  7 25  1  0  0  0  0
  7 26  1  0  0  0  0
  8  9  1  0  0  0  0
  8 27  1  0  0  0  0
  8 28  1  0  0  0  0
  9 10  1  0  0  0  0
  9 29  1  0  0  0  0
  9 30  1  0  0  0  0
 10 11  2  0  0  0  0
 10 15  1  0  0  0  0
 11 12  1  0  0  0  0
 11 31  1  0  0  0  0
 12 13  2  0  0  0  0
 12 32  1  0  0  0  0
 13 14  1  0  0  0  0
 13 33  1  0  0  0  0
 14 15  2  0  0  0  0
 14 34  1  0  0  0  0
 15 35  1  0  0  0  0
M  END
>  <CHROM.1>
66.08479273,165.21651352,76.75317185,176.78649265,-174.89890915,83.41610633
10.52403327,0.35243762,21.59564478,0.24609176,-0.50449259,0.44854716

>  <Name>
CCC(N)C(F)CCCc1ccccc1

>  <RI>
0

>  <Rbt.Current_Directory>
/home/gse84885/github/im/docking-validation/targets/mpro/expts/jackall/work/Mpro-x0072_0/work/8b/539310e96e7f9103e0adb3d9e701b7

>  <Rbt.Executable>
rbdock ($Id: //depot/dev/client3/rdock/2013.1/src/exe/rbdock.cxx#4 $)

>  <Rbt.Library>
libRbt.so (2013.1, Build901 2013/11/27)

>  <Rbt.Parameter_File>
/rDock_2013.1/data/scripts/dock.prm

>  <Rbt.Receptor>
docking-global.prm

>  <SCORE>
-6.18444

>  <SCORE.INTER>
-6.53629

>  <SCORE.INTER.CONST>
1

>  <SCORE.INTER.POLAR>
0

>  <SCORE.INTER.REPUL>
0

>  <SCORE.INTER.ROT>
6

>  <SCORE.INTER.VDW>
-17.9363

>  <SCORE.INTER.norm>
-0.435753

>  <SCORE.INTRA>
0.351853

>  <SCORE.INTRA.DIHEDRAL>
2.11521

>  <SCORE.INTRA.DIHEDRAL.0>
0.876471

>  <SCORE.INTRA.POLAR>
0

>  <SCORE.INTRA.POLAR.0>
0

>  <SCORE.INTRA.REPUL>
0

>  <SCORE.INTRA.REPUL.0>
0

>  <SCORE.INTRA.VDW>
-0.705749

>  <SCORE.INTRA.VDW.0>
0.41088

>  <SCORE.INTRA.norm>
0.0234569

>  <SCORE.RESTR>
0

>  <SCORE.RESTR.CAVITY>
0

>  <SCORE.RESTR.norm>
0

>  <SCORE.SYSTEM>
0

>  <SCORE.SYSTEM.CONST>
0

>  <SCORE.SYSTEM.DIHEDRAL>
0

>  <SCORE.SYSTEM.norm>
0

>  <SCORE.heavy>
15

>  <SCORE.norm>
-0.412296

>  <XChemDeepScore>
0.967259

>  <SuCOS_Max_Score>
0.3408122006748997

>  <SuCOS_Max_FeatureMap_Score>
0.0093975456367051836

>  <SuCOS_Max_Protrude_Score>
0.67222685571309426

>  <SuCOS_Max_Index>
5

>  <SuCOS_Cum_Score>
1.8882941749414592

>  <SuCOS_Cum_FeatureMap_Score>
0.4288807981855996

>  <SuCOS_Cum_Protrude_Score>
3.3477075516973187

$$$$
