CC(C)(c1ccc(S(N)(=O)=O)cc1)C(N)C(=O)O
 OpenBabel03122003513D

 18 18  0  0  0  0  0  0  0  0999 V2000
   11.1223    2.3109   21.9353 C   0  0  0  0  0  0  0  0  0  0  0  0
   10.3273    1.0389   22.3078 C   0  0  0  0  0  0  0  0  0  0  0  0
    9.7281    1.2960   23.7203 C   0  0  0  0  0  0  0  0  0  0  0  0
    9.1919    0.8412   21.2556 C   0  0  0  0  0  0  0  0  0  0  0  0
    9.2871   -0.1667   20.2694 C   0  0  0  0  0  0  0  0  0  0  0  0
    8.2791   -0.3750   19.3269 C   0  0  0  0  0  0  0  0  0  0  0  0
    7.1749    0.4668   19.3086 C   0  0  0  0  0  0  0  0  0  0  0  0
    5.9361    0.2213   18.0143 S   0  0  0  0  0  0  0  0  0  0  0  0
    4.5366    0.4967   18.7118 N   0  0  0  0  0  0  0  0  0  0  0  0
    6.3066    1.2142   17.0108 O   0  0  0  0  0  0  0  0  0  0  0  0
    6.1682   -1.1645   17.6339 O   0  0  0  0  0  0  0  0  0  0  0  0
    7.0604    1.5035   20.2263 C   0  0  0  0  0  0  0  0  0  0  0  0
    8.0535    1.6749   21.2009 C   0  0  0  0  0  0  0  0  0  0  0  0
   11.2508   -0.2236   22.3963 C   0  0  1  0  0  0  0  0  0  0  0  0
   12.4554   -0.0023   23.3206 N   0  0  0  0  0  0  0  0  0  0  0  0
   10.7062   -1.6465   22.7964 C   0  0  0  0  0  0  0  0  0  0  0  0
   10.3371   -2.4380   21.9079 O   0  0  0  0  0  0  0  0  0  0  0  0
   10.6023   -1.7048   24.0712 O   0  0  0  0  0  0  0  0  0  0  0  0
  1  2  1  0  0  0  0
  2  3  1  0  0  0  0
  2  4  1  0  0  0  0
  2 14  1  0  0  0  0
  4  5  2  0  0  0  0
  4 13  1  0  0  0  0
  5  6  1  0  0  0  0
  6  7  2  0  0  0  0
  7  8  1  0  0  0  0
  7 12  1  0  0  0  0
  8  9  1  0  0  0  0
  8 10  2  0  0  0  0
  8 11  2  0  0  0  0
 12 13  2  0  0  0  0
 14 15  1  1  0  0  0
 14 16  1  0  0  0  0
 16 17  2  0  0  0  0
 16 18  1  0  0  0  0
M  END
>  <CHROM.1>
105.82677555,52.72332476,142.55740568,92.38099881,8.59606232,0.15932945,20.64511441
-0.00275532,-0.78197936,0.10902802

>  <Name>
CC(C)(c1ccc(S(N)(=O)=O)cc1)C(N)C(=O)O

>  <RI>
0

>  <Rbt.Current_Directory>
/home/gse84885/github/im/docking-validation/targets/mpro/expts/jackall/work/Mpro-x0072_0/work/9f/08d04434470fadfc6037692cf00258

>  <Rbt.Executable>
rbdock ($Id: //depot/dev/client3/rdock/2013.1/src/exe/rbdock.cxx#4 $)

>  <Rbt.Library>
libRbt.so (2013.1, Build901 2013/11/27)

>  <Rbt.Parameter_File>
/rDock_2013.1/data/scripts/dock.prm

>  <Rbt.Receptor>
docking-global.prm

>  <SCORE>
-9.79536

>  <SCORE.INTER>
-8.34788

>  <SCORE.INTER.CONST>
1

>  <SCORE.INTER.POLAR>
0

>  <SCORE.INTER.REPUL>
0.0352306

>  <SCORE.INTER.ROT>
4

>  <SCORE.INTER.VDW>
-17.924

>  <SCORE.INTER.norm>
-0.463771

>  <SCORE.INTRA>
-1.44748

>  <SCORE.INTRA.DIHEDRAL>
0.297209

>  <SCORE.INTRA.DIHEDRAL.0>
4.13129

>  <SCORE.INTRA.POLAR>
0

>  <SCORE.INTRA.POLAR.0>
0

>  <SCORE.INTRA.REPUL>
0

>  <SCORE.INTRA.REPUL.0>
0

>  <SCORE.INTRA.VDW>
-1.59608

>  <SCORE.INTRA.VDW.0>
1.48907

>  <SCORE.INTRA.norm>
-0.0804155

>  <SCORE.RESTR>
0

>  <SCORE.RESTR.CAVITY>
0

>  <SCORE.RESTR.norm>
0

>  <SCORE.SYSTEM>
0

>  <SCORE.SYSTEM.CONST>
0

>  <SCORE.SYSTEM.DIHEDRAL>
0

>  <SCORE.SYSTEM.norm>
0

>  <SCORE.heavy>
18

>  <SCORE.norm>
-0.544187

>  <XChemDeepScore>
0.971867

>  <SuCOS_Max_Score>
0.38045801031607845

>  <SuCOS_Max_FeatureMap_Score>
0.06851253370812202

>  <SuCOS_Max_Protrude_Score>
0.69240348692403486

>  <SuCOS_Max_Index>
5

>  <SuCOS_Cum_Score>
1.5857752776131873

>  <SuCOS_Cum_FeatureMap_Score>
0.11179293107158311

>  <SuCOS_Cum_Protrude_Score>
3.0597576241547917

$$$$
