COC(=O)c1ccc(COS(N)(=O)=O)cc1
 OpenBabel03122003513D

 16 16  0  0  0  0  0  0  0  0999 V2000
   12.8851    4.2808   23.9054 C   0  0  0  0  0  0  0  0  0  0  0  0
   11.6877    3.6996   23.3881 O   0  0  0  0  0  0  0  0  0  0  0  0
   11.8633    2.4535   22.8798 C   0  0  0  0  0  0  0  0  0  0  0  0
   12.8895    1.7938   22.9691 O   0  0  0  0  0  0  0  0  0  0  0  0
   10.6359    1.9760   22.1865 C   0  0  0  0  0  0  0  0  0  0  0  0
   10.6920    0.7373   21.5353 C   0  0  0  0  0  0  0  0  0  0  0  0
    9.5725    0.2407   20.8650 C   0  0  0  0  0  0  0  0  0  0  0  0
    8.3785    0.9723   20.8307 C   0  0  0  0  0  0  0  0  0  0  0  0
    7.1857    0.4361   20.0680 C   0  0  0  0  0  0  0  0  0  0  0  0
    6.9942    1.1833   18.8811 O   0  0  0  0  0  0  0  0  0  0  0  0
    5.8354    0.6467   17.8612 S   0  0  0  0  0  0  0  0  0  0  0  0
    4.5433    0.8944   18.7329 N   0  0  0  0  0  0  0  0  0  0  0  0
    5.9497    1.5159   16.6955 O   0  0  0  0  0  0  0  0  0  0  0  0
    6.1687   -0.7530   17.6333 O   0  0  0  0  0  0  0  0  0  0  0  0
    8.3246    2.2132   21.4817 C   0  0  0  0  0  0  0  0  0  0  0  0
    9.4442    2.7131   22.1586 C   0  0  0  0  0  0  0  0  0  0  0  0
  1  2  1  0  0  0  0
  2  3  1  0  0  0  0
  3  4  2  0  0  0  0
  3  5  1  0  0  0  0
  5  6  2  0  0  0  0
  5 16  1  0  0  0  0
  6  7  1  0  0  0  0
  7  8  2  0  0  0  0
  8  9  1  0  0  0  0
  8 15  1  0  0  0  0
  9 10  1  0  0  0  0
 10 11  1  0  0  0  0
 11 12  1  0  0  0  0
 11 13  2  0  0  0  0
 11 14  2  0  0  0  0
 15 16  2  0  0  0  0
M  END
>  <CHROM.1>
7.95271188,176.02210830,-107.20462440,174.20625097,66.43869784,8.67588298
1.49861660,20.47648213,0.50762367,-0.57032851,0.38981450

>  <Name>
COC(=O)c1ccc(COS(N)(=O)=O)cc1

>  <RI>
0

>  <Rbt.Current_Directory>
/home/gse84885/github/im/docking-validation/targets/mpro/expts/jackall/work/Mpro-x0072_0/work/2e/565cb4fb039ed00f8b05d4957d3ddd

>  <Rbt.Executable>
rbdock ($Id: //depot/dev/client3/rdock/2013.1/src/exe/rbdock.cxx#4 $)

>  <Rbt.Library>
libRbt.so (2013.1, Build901 2013/11/27)

>  <Rbt.Parameter_File>
/rDock_2013.1/data/scripts/dock.prm

>  <Rbt.Receptor>
docking-global.prm

>  <SCORE>
-6.29825

>  <SCORE.INTER>
-6.56619

>  <SCORE.INTER.CONST>
1

>  <SCORE.INTER.POLAR>
0

>  <SCORE.INTER.REPUL>
0.060422

>  <SCORE.INTER.ROT>
5

>  <SCORE.INTER.VDW>
-17.2683

>  <SCORE.INTER.norm>
-0.410387

>  <SCORE.INTRA>
0.267938

>  <SCORE.INTRA.DIHEDRAL>
0.641373

>  <SCORE.INTRA.DIHEDRAL.0>
0.796412

>  <SCORE.INTRA.POLAR>
0

>  <SCORE.INTRA.POLAR.0>
0

>  <SCORE.INTRA.REPUL>
0

>  <SCORE.INTRA.REPUL.0>
0

>  <SCORE.INTRA.VDW>
-0.0527484

>  <SCORE.INTRA.VDW.0>
1.67694

>  <SCORE.INTRA.norm>
0.0167461

>  <SCORE.RESTR>
0

>  <SCORE.RESTR.CAVITY>
0

>  <SCORE.RESTR.norm>
0

>  <SCORE.SYSTEM>
0

>  <SCORE.SYSTEM.CONST>
0

>  <SCORE.SYSTEM.DIHEDRAL>
0

>  <SCORE.SYSTEM.norm>
0

>  <SCORE.heavy>
16

>  <SCORE.norm>
-0.393641

>  <XChemDeepScore>
0.975325

>  <SuCOS_Max_Score>
0.27314264171177732

>  <SuCOS_Max_FeatureMap_Score>
0.053474281131410416

>  <SuCOS_Max_Protrude_Score>
0.49281100229214425

>  <SuCOS_Max_Index>
5

>  <SuCOS_Cum_Score>
1.0531689198340615

>  <SuCOS_Cum_FeatureMap_Score>
0.10455828378339427

>  <SuCOS_Cum_Protrude_Score>
2.0017795558847289

$$$$
