CC(O)(COCc1ccccc1)C(=O)Cc1cccnc1
 OpenBabel03122003513D

 21 22  0  0  0  0  0  0  0  0999 V2000
   12.3702   -0.8274   22.2602 C   0  0  0  0  0  0  0  0  0  0  0  0
   12.5616    0.3446   23.2227 C   0  0  1  0  0  0  0  0  0  0  0  0
   13.9658    0.4549   23.5126 O   0  0  0  0  0  0  0  0  0  0  0  0
   12.0746    1.6620   22.5921 C   0  0  0  0  0  0  0  0  0  0  0  0
   12.2870    2.7506   23.4868 O   0  0  0  0  0  0  0  0  0  0  0  0
   11.6776    3.9473   23.0182 C   0  0  0  0  0  0  0  0  0  0  0  0
   11.6513    4.9494   24.1409 C   0  0  0  0  0  0  0  0  0  0  0  0
   12.8333    5.3130   24.7974 C   0  0  0  0  0  0  0  0  0  0  0  0
   12.8144    6.2516   25.8296 C   0  0  0  0  0  0  0  0  0  0  0  0
   11.6090    6.8389   26.2157 C   0  0  0  0  0  0  0  0  0  0  0  0
   10.4274    6.4831   25.5720 C   0  0  0  0  0  0  0  0  0  0  0  0
   10.4431    5.5462   24.5421 C   0  0  0  0  0  0  0  0  0  0  0  0
   11.8128    0.1058   24.5531 C   0  0  0  0  0  0  0  0  0  0  0  0
   12.3831    0.1041   25.6495 O   0  0  0  0  0  0  0  0  0  0  0  0
   10.3279   -0.1902   24.4779 C   0  0  0  0  0  0  0  0  0  0  0  0
    9.9630   -1.5834   24.9124 C   0  0  0  0  0  0  0  0  0  0  0  0
   10.3929   -2.7047   24.2000 C   0  0  0  0  0  0  0  0  0  0  0  0
   10.1242   -3.9791   24.6954 C   0  0  0  0  0  0  0  0  0  0  0  0
    9.4205   -4.0854   25.8826 C   0  0  0  0  0  0  0  0  0  0  0  0
    8.9621   -3.0275   26.5826 N   0  0  0  0  0  0  0  0  0  0  0  0
    9.2389   -1.8030   26.0823 C   0  0  0  0  0  0  0  0  0  0  0  0
  2  1  1  6  0  0  0
  2  3  1  0  0  0  0
  2  4  1  0  0  0  0
  2 13  1  0  0  0  0
  4  5  1  0  0  0  0
  5  6  1  0  0  0  0
  6  7  1  0  0  0  0
  7  8  2  0  0  0  0
  7 12  1  0  0  0  0
  8  9  1  0  0  0  0
  9 10  2  0  0  0  0
 10 11  1  0  0  0  0
 11 12  2  0  0  0  0
 13 14  2  0  0  0  0
 13 15  1  0  0  0  0
 15 16  1  0  0  0  0
 16 17  2  0  0  0  0
 16 21  1  0  0  0  0
 17 18  1  0  0  0  0
 18 19  2  0  0  0  0
 19 20  1  0  0  0  0
 20 21  2  0  0  0  0
M  END
>  <CHROM.1>
-178.65222516,122.31871486,-171.61123467,166.51509880,55.56092183,113.43644017
-64.96667215,11.34882453,1.23968814,24.55351841,-1.85222495,0.79429543,0.17930658

>  <Name>
CC(O)(COCc1ccccc1)C(=O)Cc1cccnc1

>  <RI>
0

>  <Rbt.Current_Directory>
/home/gse84885/github/im/docking-validation/targets/mpro/expts/jackall/work/Mpro-x0072_0/work/d3/8112d315cfc5ac65f19a35bbc9e78d

>  <Rbt.Executable>
rbdock ($Id: //depot/dev/client3/rdock/2013.1/src/exe/rbdock.cxx#4 $)

>  <Rbt.Library>
libRbt.so (2013.1, Build901 2013/11/27)

>  <Rbt.Parameter_File>
/rDock_2013.1/data/scripts/dock.prm

>  <Rbt.Receptor>
docking-global.prm

>  <SCORE>
-9.18351

>  <SCORE.INTER>
-9.07084

>  <SCORE.INTER.CONST>
1

>  <SCORE.INTER.POLAR>
0

>  <SCORE.INTER.REPUL>
0.00207377

>  <SCORE.INTER.ROT>
7

>  <SCORE.INTER.VDW>
-21.4812

>  <SCORE.INTER.norm>
-0.431945

>  <SCORE.INTRA>
-0.116947

>  <SCORE.INTRA.DIHEDRAL>
0.969799

>  <SCORE.INTRA.DIHEDRAL.0>
3.30589

>  <SCORE.INTRA.POLAR>
0

>  <SCORE.INTRA.POLAR.0>
0

>  <SCORE.INTRA.REPUL>
0

>  <SCORE.INTRA.REPUL.0>
0

>  <SCORE.INTRA.VDW>
-0.601847

>  <SCORE.INTRA.VDW.0>
-0.72433

>  <SCORE.INTRA.norm>
-0.00556893

>  <SCORE.RESTR>
0.00427682

>  <SCORE.RESTR.CAVITY>
0.00427682

>  <SCORE.RESTR.norm>
0.000203658

>  <SCORE.SYSTEM>
0

>  <SCORE.SYSTEM.CONST>
0

>  <SCORE.SYSTEM.DIHEDRAL>
0

>  <SCORE.SYSTEM.norm>
0

>  <SCORE.heavy>
21

>  <SCORE.norm>
-0.43731

>  <XChemDeepScore>
0.983830

>  <SuCOS_Max_Score>
0.35813132083654819

>  <SuCOS_Max_FeatureMap_Score>
0.077900068573681258

>  <SuCOS_Max_Protrude_Score>
0.63836257309941513

>  <SuCOS_Max_Index>
0

>  <SuCOS_Cum_Score>
2.0202383893462343

>  <SuCOS_Cum_FeatureMap_Score>
0.17941731533882727

>  <SuCOS_Cum_Protrude_Score>
3.8610594633536408

$$$$
