O=C(O)C=C(Cc1ccccc1)c1cccnc1
 OpenBabel03122003533D

 31 32  0  0  0  0  0  0  0  0999 V2000
    8.8651    0.4661   28.5334 O   0  0  0  0  0  0  0  0  0  0  0  0
    8.9505    0.2269   27.2949 C   0  0  0  0  0  0  0  0  0  0  0  0
    9.0014    1.0059   26.3149 O   0  0  0  0  0  0  0  0  0  0  0  0
    9.0680   -1.2691   26.9980 C   0  0  0  0  0  0  0  0  0  0  0  0
    9.3266   -1.8732   25.8226 C   0  0  0  0  0  0  0  0  0  0  0  0
    9.4644   -1.2218   24.4627 C   0  0  0  0  0  0  0  0  0  0  0  0
   10.8672   -0.7772   24.0796 C   0  0  0  0  0  0  0  0  0  0  0  0
   11.4324   -1.2360   22.8787 C   0  0  0  0  0  0  0  0  0  0  0  0
   12.6526   -0.7295   22.4222 C   0  0  0  0  0  0  0  0  0  0  0  0
   13.3285    0.2383   23.1617 C   0  0  0  0  0  0  0  0  0  0  0  0
   12.7854    0.6998   24.3571 C   0  0  0  0  0  0  0  0  0  0  0  0
   11.5591    0.2048   24.8050 C   0  0  0  0  0  0  0  0  0  0  0  0
    9.5370   -3.3208   25.8926 C   0  0  0  0  0  0  0  0  0  0  0  0
   10.0059   -4.0556   24.8026 C   0  0  0  0  0  0  0  0  0  0  0  0
   10.0882   -5.4431   24.8938 C   0  0  0  0  0  0  0  0  0  0  0  0
    9.6921   -6.0669   26.0703 C   0  0  0  0  0  0  0  0  0  0  0  0
    9.2429   -5.3339   27.1024 N   0  0  0  0  0  0  0  0  0  0  0  0
    9.1542   -3.9979   27.0475 C   0  0  0  0  0  0  0  0  0  0  0  0
    9.0644    0.6618   25.4457 H   0  0  0  0  0  0  0  0  0  0  0  0
    8.9311   -1.8982   27.8046 H   0  0  0  0  0  0  0  0  0  0  0  0
    8.8310   -0.3595   24.4463 H   0  0  0  0  0  0  0  0  0  0  0  0
    9.1944   -1.9746   23.7518 H   0  0  0  0  0  0  0  0  0  0  0  0
   10.9408   -1.9560   22.3264 H   0  0  0  0  0  0  0  0  0  0  0  0
   13.0535   -1.0732   21.5356 H   0  0  0  0  0  0  0  0  0  0  0  0
   14.2293    0.6120   22.8242 H   0  0  0  0  0  0  0  0  0  0  0  0
   13.2894    1.4084   24.9129 H   0  0  0  0  0  0  0  0  0  0  0  0
   11.1553    0.5667   25.6831 H   0  0  0  0  0  0  0  0  0  0  0  0
   10.2897   -3.5742   23.9350 H   0  0  0  0  0  0  0  0  0  0  0  0
   10.4385   -5.9999   24.0986 H   0  0  0  0  0  0  0  0  0  0  0  0
    9.7430   -7.0945   26.1514 H   0  0  0  0  0  0  0  0  0  0  0  0
    8.8020   -3.4706   27.8617 H   0  0  0  0  0  0  0  0  0  0  0  0
  1  2  2  0  0  0  0
  2  3  1  0  0  0  0
  2  4  1  0  0  0  0
  3 19  1  0  0  0  0
  4  5  2  0  0  0  0
  4 20  1  0  0  0  0
  5  6  1  0  0  0  0
  5 13  1  0  0  0  0
  6  7  1  0  0  0  0
  6 21  1  0  0  0  0
  6 22  1  0  0  0  0
  7  8  2  0  0  0  0
  7 12  1  0  0  0  0
  8  9  1  0  0  0  0
  8 23  1  0  0  0  0
  9 10  2  0  0  0  0
  9 24  1  0  0  0  0
 10 11  1  0  0  0  0
 10 25  1  0  0  0  0
 11 12  2  0  0  0  0
 11 26  1  0  0  0  0
 12 27  1  0  0  0  0
 13 14  2  0  0  0  0
 13 18  1  0  0  0  0
 14 15  1  0  0  0  0
 14 28  1  0  0  0  0
 15 16  2  0  0  0  0
 15 29  1  0  0  0  0
 16 17  1  0  0  0  0
 16 30  1  0  0  0  0
 17 18  2  0  0  0  0
 18 31  1  0  0  0  0
M  END
>  <CHROM.1>
-171.73484617,90.04617138,-170.34473755,125.02623940,10.24785870,-1.75944979
25.43322360,0.85414976,0.89725218,0.15852351

>  <Name>
O=C(O)C=C(Cc1ccccc1)c1cccnc1

>  <RI>
0

>  <Rbt.Current_Directory>
/home/gse84885/github/im/docking-validation/targets/mpro/expts/jackall/work/Mpro-x0072_0/work/35/4c144947d6b15ffbeb0e46d184ccc2

>  <Rbt.Executable>
rbdock ($Id: //depot/dev/client3/rdock/2013.1/src/exe/rbdock.cxx#4 $)

>  <Rbt.Library>
libRbt.so (2013.1, Build901 2013/11/27)

>  <Rbt.Parameter_File>
/rDock_2013.1/data/scripts/dock.prm

>  <Rbt.Receptor>
docking-global.prm

>  <SCORE>
-13.4505

>  <SCORE.INTER>
-9.65117

>  <SCORE.INTER.CONST>
1

>  <SCORE.INTER.POLAR>
0

>  <SCORE.INTER.REPUL>
0.00262998

>  <SCORE.INTER.ROT>
4

>  <SCORE.INTER.VDW>
-19.0643

>  <SCORE.INTER.norm>
-0.536176

>  <SCORE.INTRA>
-3.79932

>  <SCORE.INTRA.DIHEDRAL>
-12.8449

>  <SCORE.INTRA.DIHEDRAL.0>
15.5675

>  <SCORE.INTRA.POLAR>
0

>  <SCORE.INTRA.POLAR.0>
0

>  <SCORE.INTRA.REPUL>
0

>  <SCORE.INTRA.REPUL.0>
0

>  <SCORE.INTRA.VDW>
2.62315

>  <SCORE.INTRA.VDW.0>
-2.04414

>  <SCORE.INTRA.norm>
-0.211073

>  <SCORE.RESTR>
0

>  <SCORE.RESTR.CAVITY>
0

>  <SCORE.RESTR.norm>
0

>  <SCORE.SYSTEM>
0

>  <SCORE.SYSTEM.CONST>
0

>  <SCORE.SYSTEM.DIHEDRAL>
0

>  <SCORE.SYSTEM.norm>
0

>  <SCORE.heavy>
18

>  <SCORE.norm>
-0.747249

>  <XChemDeepScore>
0.981559

>  <SuCOS_Max_Score>
0.5234831970252154

>  <SuCOS_Max_FeatureMap_Score>
0.30968221299583448

>  <SuCOS_Max_Protrude_Score>
0.73728418105459637

>  <SuCOS_Max_Index>
0

>  <SuCOS_Cum_Score>
2.1537008816414263

>  <SuCOS_Cum_FeatureMap_Score>
1.0314113324091232

>  <SuCOS_Cum_Protrude_Score>
3.2759904308737289

$$$$
