CC(O)(COCc1ccccc1)C(=O)Cc1ccncc1
 OpenBabel03122003533D

 40 41  0  0  0  0  0  0  0  0999 V2000
   11.7807    0.0889   24.3349 C   0  0  0  0  0  0  0  0  0  0  0  0
   10.5783   -0.5464   23.6321 C   0  0  1  0  0  0  0  0  0  0  0  0
    9.4561   -0.5084   24.5342 O   0  0  0  0  0  0  0  0  0  0  0  0
   10.2288    0.2189   22.3400 C   0  0  0  0  0  0  0  0  0  0  0  0
    9.0999   -0.3750   21.7053 O   0  0  0  0  0  0  0  0  0  0  0  0
    8.7113    0.3343   20.5311 C   0  0  0  0  0  0  0  0  0  0  0  0
    7.5805   -0.4103   19.8736 C   0  0  0  0  0  0  0  0  0  0  0  0
    7.3925   -0.3268   18.4868 C   0  0  0  0  0  0  0  0  0  0  0  0
    6.3610   -1.0323   17.8660 C   0  0  0  0  0  0  0  0  0  0  0  0
    5.4980   -1.8179   18.6297 C   0  0  0  0  0  0  0  0  0  0  0  0
    5.6697   -1.9018   20.0103 C   0  0  0  0  0  0  0  0  0  0  0  0
    6.7059   -1.2003   20.6301 C   0  0  0  0  0  0  0  0  0  0  0  0
   10.8175   -2.0401   23.3175 C   0  0  0  0  0  0  0  0  0  0  0  0
   11.8925   -2.4769   22.8911 O   0  0  0  0  0  0  0  0  0  0  0  0
    9.6414   -2.9859   23.4806 C   0  0  0  0  0  0  0  0  0  0  0  0
    9.6579   -3.7102   24.8086 C   0  0  0  0  0  0  0  0  0  0  0  0
   10.3465   -4.9181   24.9540 C   0  0  0  0  0  0  0  0  0  0  0  0
   10.3372   -5.5664   26.1828 C   0  0  0  0  0  0  0  0  0  0  0  0
    9.6646   -5.0348   27.2154 N   0  0  0  0  0  0  0  0  0  0  0  0
    8.9663   -3.8934   27.1073 C   0  0  0  0  0  0  0  0  0  0  0  0
    8.9394   -3.2091   25.8990 C   0  0  0  0  0  0  0  0  0  0  0  0
   11.5739    1.1197   24.5338 H   0  0  0  0  0  0  0  0  0  0  0  0
   12.6427    0.0131   23.7055 H   0  0  0  0  0  0  0  0  0  0  0  0
   11.9660   -0.4220   25.2566 H   0  0  0  0  0  0  0  0  0  0  0  0
    9.2597    0.4125   24.7673 H   0  0  0  0  0  0  0  0  0  0  0  0
   11.0655    0.1879   21.6738 H   0  0  0  0  0  0  0  0  0  0  0  0
    9.9959    1.2334   22.5878 H   0  0  0  0  0  0  0  0  0  0  0  0
    9.5404    0.3988   19.8578 H   0  0  0  0  0  0  0  0  0  0  0  0
    8.3968    1.3241   20.7887 H   0  0  0  0  0  0  0  0  0  0  0  0
    8.0227    0.2618   17.9199 H   0  0  0  0  0  0  0  0  0  0  0  0
    6.2369   -0.9729   16.8432 H   0  0  0  0  0  0  0  0  0  0  0  0
    4.7322   -2.3371   18.1725 H   0  0  0  0  0  0  0  0  0  0  0  0
    5.0305   -2.4828   20.5750 H   0  0  0  0  0  0  0  0  0  0  0  0
    6.8281   -1.2645   21.6528 H   0  0  0  0  0  0  0  0  0  0  0  0
    9.6729   -3.7109   22.6943 H   0  0  0  0  0  0  0  0  0  0  0  0
    8.7466   -2.4005   23.4416 H   0  0  0  0  0  0  0  0  0  0  0  0
   10.8576   -5.3249   24.1551 H   0  0  0  0  0  0  0  0  0  0  0  0
   10.8470   -6.4558   26.3014 H   0  0  0  0  0  0  0  0  0  0  0  0
    8.4500   -3.5248   27.9212 H   0  0  0  0  0  0  0  0  0  0  0  0
    8.3938   -2.3380   25.8065 H   0  0  0  0  0  0  0  0  0  0  0  0
  1 22  1  0  0  0  0
  1 23  1  0  0  0  0
  1 24  1  0  0  0  0
  2  1  1  0  0  0  0
  2  3  1  1  0  0  0
  2  4  1  0  0  0  0
  2 13  1  0  0  0  0
  3 25  1  0  0  0  0
  4  5  1  0  0  0  0
  4 26  1  0  0  0  0
  4 27  1  0  0  0  0
  5  6  1  0  0  0  0
  6  7  1  0  0  0  0
  6 28  1  0  0  0  0
  6 29  1  0  0  0  0
  7  8  2  0  0  0  0
  7 12  1  0  0  0  0
  8  9  1  0  0  0  0
  8 30  1  0  0  0  0
  9 10  2  0  0  0  0
  9 31  1  0  0  0  0
 10 11  1  0  0  0  0
 10 32  1  0  0  0  0
 11 12  2  0  0  0  0
 11 33  1  0  0  0  0
 12 34  1  0  0  0  0
 13 14  2  0  0  0  0
 13 15  1  0  0  0  0
 15 16  1  0  0  0  0
 15 35  1  0  0  0  0
 15 36  1  0  0  0  0
 16 17  2  0  0  0  0
 16 21  1  0  0  0  0
 17 18  1  0  0  0  0
 17 37  1  0  0  0  0
 18 19  2  0  0  0  0
 18 38  1  0  0  0  0
 19 20  1  0  0  0  0
 20 21  2  0  0  0  0
 20 39  1  0  0  0  0
 21 40  1  0  0  0  0
M  END
>  <CHROM.1>
-179.37592464,-41.50365785,177.77152811,176.07260955,-151.60339446,-97.63153171
-87.97589448,9.06937561,-1.92849810,22.80816289,-1.03355665,-0.65665947,-0.78782360

>  <Name>
CC(O)(COCc1ccccc1)C(=O)Cc1ccncc1

>  <RI>
0

>  <Rbt.Current_Directory>
/home/gse84885/github/im/docking-validation/targets/mpro/expts/jackall/work/Mpro-x0072_0/work/f1/e120e154ffcfc4c6dfdcf537ba0c5b

>  <Rbt.Executable>
rbdock ($Id: //depot/dev/client3/rdock/2013.1/src/exe/rbdock.cxx#4 $)

>  <Rbt.Library>
libRbt.so (2013.1, Build901 2013/11/27)

>  <Rbt.Parameter_File>
/rDock_2013.1/data/scripts/dock.prm

>  <Rbt.Receptor>
docking-global.prm

>  <SCORE>
-10.2401

>  <SCORE.INTER>
-10.5033

>  <SCORE.INTER.CONST>
1

>  <SCORE.INTER.POLAR>
0

>  <SCORE.INTER.REPUL>
0

>  <SCORE.INTER.ROT>
7

>  <SCORE.INTER.VDW>
-22.9033

>  <SCORE.INTER.norm>
-0.500155

>  <SCORE.INTRA>
0.263122

>  <SCORE.INTRA.DIHEDRAL>
1.71757

>  <SCORE.INTRA.DIHEDRAL.0>
3.84916

>  <SCORE.INTRA.POLAR>
0

>  <SCORE.INTRA.POLAR.0>
0

>  <SCORE.INTRA.REPUL>
0

>  <SCORE.INTRA.REPUL.0>
0

>  <SCORE.INTRA.VDW>
-0.595664

>  <SCORE.INTRA.VDW.0>
-0.751195

>  <SCORE.INTRA.norm>
0.0125296

>  <SCORE.RESTR>
0

>  <SCORE.RESTR.CAVITY>
0

>  <SCORE.RESTR.norm>
0

>  <SCORE.SYSTEM>
0

>  <SCORE.SYSTEM.CONST>
0

>  <SCORE.SYSTEM.DIHEDRAL>
0

>  <SCORE.SYSTEM.norm>
0

>  <SCORE.heavy>
21

>  <SCORE.norm>
-0.487625

>  <XChemDeepScore>
0.979195

>  <SuCOS_Max_Score>
0.35521038884337502

>  <SuCOS_Max_FeatureMap_Score>
0.036344970480385992

>  <SuCOS_Max_Protrude_Score>
0.67407580720636406

>  <SuCOS_Max_Index>
0

>  <SuCOS_Cum_Score>
1.6195210560498765

>  <SuCOS_Cum_FeatureMap_Score>
0.16609380503530824

>  <SuCOS_Cum_Protrude_Score>
3.0729483070644452

$$$$
