CC(C)C(C(=O)O)c1ccc(S(N)(=O)=O)cc1
 OpenBabel03122003513D

 17 17  0  0  0  0  0  0  0  0999 V2000
   11.0250    0.1534   24.7176 C   0  0  0  0  0  0  0  0  0  0  0  0
    9.9242   -0.0231   23.6620 C   0  0  0  0  0  0  0  0  0  0  0  0
    8.5643    0.0289   24.3756 C   0  0  0  0  0  0  0  0  0  0  0  0
   10.0366    1.0509   22.5438 C   0  0  1  0  0  0  0  0  0  0  0  0
   11.4235    1.1370   21.8501 C   0  0  0  0  0  0  0  0  0  0  0  0
   11.9029    0.0479   21.4199 O   0  0  0  0  0  0  0  0  0  0  0  0
   11.9262    2.2997   21.8069 O   0  0  0  0  0  0  0  0  0  0  0  0
    8.9764    0.8763   21.4540 C   0  0  0  0  0  0  0  0  0  0  0  0
    9.1393   -0.1210   20.4802 C   0  0  0  0  0  0  0  0  0  0  0  0
    8.2204   -0.2577   19.4393 C   0  0  0  0  0  0  0  0  0  0  0  0
    7.1204    0.6004   19.3794 C   0  0  0  0  0  0  0  0  0  0  0  0
    5.9591    0.4403   18.0516 S   0  0  0  0  0  0  0  0  0  0  0  0
    6.2431   -1.1449   17.5676 N   0  0  0  0  0  0  0  0  0  0  0  0
    4.6220    0.4801   18.5924 O   0  0  0  0  0  0  0  0  0  0  0  0
    6.3810    1.2911   16.9608 O   0  0  0  0  0  0  0  0  0  0  0  0
    6.9354    1.5949   20.3427 C   0  0  0  0  0  0  0  0  0  0  0  0
    7.8574    1.7229   21.3828 C   0  0  0  0  0  0  0  0  0  0  0  0
  1  2  1  0  0  0  0
  2  3  1  0  0  0  0
  4  2  1  1  0  0  0
  4  5  1  0  0  0  0
  4  8  1  0  0  0  0
  5  6  2  0  0  0  0
  5  7  1  0  0  0  0
  8  9  2  0  0  0  0
  8 17  1  0  0  0  0
  9 10  1  0  0  0  0
 10 11  2  0  0  0  0
 11 12  1  0  0  0  0
 11 16  1  0  0  0  0
 12 13  1  0  0  0  0
 12 14  2  0  0  0  0
 12 15  2  0  0  0  0
 16 17  2  0  0  0  0
M  END
>  <CHROM.1>
54.18667066,51.06704636,-77.54277292,21.66786797,8.41320401,0.58895197,20.60996204
0.79028506,0.16656450,1.67959766

>  <Name>
CC(C)C(C(=O)O)c1ccc(S(N)(=O)=O)cc1

>  <RI>
0

>  <Rbt.Current_Directory>
/home/gse84885/github/im/docking-validation/targets/mpro/expts/jackall/work/Mpro-x0072_0/work/f7/47f5a1f7b42dff54c64405d469aef3

>  <Rbt.Executable>
rbdock ($Id: //depot/dev/client3/rdock/2013.1/src/exe/rbdock.cxx#4 $)

>  <Rbt.Library>
libRbt.so (2013.1, Build901 2013/11/27)

>  <Rbt.Parameter_File>
/rDock_2013.1/data/scripts/dock.prm

>  <Rbt.Receptor>
docking-global.prm

>  <SCORE>
-7.21364

>  <SCORE.INTER>
-7.36288

>  <SCORE.INTER.CONST>
1

>  <SCORE.INTER.POLAR>
0

>  <SCORE.INTER.REPUL>
0.0303799

>  <SCORE.INTER.ROT>
4

>  <SCORE.INTER.VDW>
-16.9148

>  <SCORE.INTER.norm>
-0.433111

>  <SCORE.INTRA>
0.14924

>  <SCORE.INTRA.DIHEDRAL>
0.0461741

>  <SCORE.INTRA.DIHEDRAL.0>
4.1625

>  <SCORE.INTRA.POLAR>
0

>  <SCORE.INTRA.POLAR.0>
0

>  <SCORE.INTRA.REPUL>
0

>  <SCORE.INTRA.REPUL.0>
0

>  <SCORE.INTRA.VDW>
0.126153

>  <SCORE.INTRA.VDW.0>
-1.42213

>  <SCORE.INTRA.norm>
0.00877881

>  <SCORE.RESTR>
0

>  <SCORE.RESTR.CAVITY>
0

>  <SCORE.RESTR.norm>
0

>  <SCORE.SYSTEM>
0

>  <SCORE.SYSTEM.CONST>
0

>  <SCORE.SYSTEM.DIHEDRAL>
0

>  <SCORE.SYSTEM.norm>
0

>  <SCORE.heavy>
17

>  <SCORE.norm>
-0.424332

>  <XChemDeepScore>
0.977558

>  <SuCOS_Max_Score>
0.37956413310753934

>  <SuCOS_Max_FeatureMap_Score>
0.14188410827793121

>  <SuCOS_Max_Protrude_Score>
0.61724415793714749

>  <SuCOS_Max_Index>
6

>  <SuCOS_Cum_Score>
1.3874417967431225

>  <SuCOS_Cum_FeatureMap_Score>
0.218487601553359

>  <SuCOS_Cum_Protrude_Score>
2.5563959919328862

$$$$
