NC(=NCc1ccccc1)NCCc1ccncc1
 OpenBabel03122003533D

 37 38  0  0  0  0  0  0  0  0999 V2000
   12.4451   -1.1357   21.9565 N   0  0  0  0  0  0  0  0  0  0  0  0
   11.4554   -0.2115   21.9670 C   0  0  0  0  0  0  0  0  0  0  0  0
   11.4948    1.0024   22.3630 N   0  0  0  0  0  0  0  0  0  0  0  0
   12.7196    1.5360   22.9416 C   0  0  0  0  0  0  0  0  0  0  0  0
   12.7044    3.0490   22.9433 C   0  0  0  0  0  0  0  0  0  0  0  0
   12.7824    3.7700   21.7457 C   0  0  0  0  0  0  0  0  0  0  0  0
   12.7636    5.1675   21.7596 C   0  0  0  0  0  0  0  0  0  0  0  0
   12.6657    5.8546   22.9682 C   0  0  0  0  0  0  0  0  0  0  0  0
   12.5826    5.1476   24.1660 C   0  0  0  0  0  0  0  0  0  0  0  0
   12.5990    3.7525   24.1535 C   0  0  0  0  0  0  0  0  0  0  0  0
   10.3458   -0.7630   21.3977 N   0  0  0  0  0  0  0  0  0  0  0  0
    9.2545    0.0932   20.9411 C   0  0  0  0  0  0  0  0  0  0  0  0
    8.7261   -0.4405   19.6039 C   0  0  0  0  0  0  0  0  0  0  0  0
    7.4026    0.1538   19.2095 C   0  0  0  0  0  0  0  0  0  0  0  0
    6.2781   -0.0220   20.0166 C   0  0  0  0  0  0  0  0  0  0  0  0
    5.0848    0.5693   19.6272 C   0  0  0  0  0  0  0  0  0  0  0  0
    4.9426    1.3003   18.5017 N   0  0  0  0  0  0  0  0  0  0  0  0
    6.0435    1.4492   17.7340 C   0  0  0  0  0  0  0  0  0  0  0  0
    7.2776    0.9027   18.0360 C   0  0  0  0  0  0  0  0  0  0  0  0
   13.3288   -0.9148   22.3300 H   0  0  0  0  0  0  0  0  0  0  0  0
   12.2809   -2.0285   21.5754 H   0  0  0  0  0  0  0  0  0  0  0  0
   13.5554    1.1952   22.3670 H   0  0  0  0  0  0  0  0  0  0  0  0
   12.7956    1.1948   23.9529 H   0  0  0  0  0  0  0  0  0  0  0  0
   12.8542    3.2668   20.8476 H   0  0  0  0  0  0  0  0  0  0  0  0
   12.8224    5.6919   20.8727 H   0  0  0  0  0  0  0  0  0  0  0  0
   12.6548    6.8865   22.9760 H   0  0  0  0  0  0  0  0  0  0  0  0
   12.5090    5.6553   25.0615 H   0  0  0  0  0  0  0  0  0  0  0  0
   12.5330    3.2327   25.0426 H   0  0  0  0  0  0  0  0  0  0  0  0
   10.2803   -1.7399   21.2944 H   0  0  0  0  0  0  0  0  0  0  0  0
    9.6132    1.0929   20.8116 H   0  0  0  0  0  0  0  0  0  0  0  0
    8.4677    0.0932   21.6663 H   0  0  0  0  0  0  0  0  0  0  0  0
    8.6124   -1.5015   19.6824 H   0  0  0  0  0  0  0  0  0  0  0  0
    9.4345   -0.1665   18.8503 H   0  0  0  0  0  0  0  0  0  0  0  0
    6.3327   -0.5792   20.8835 H   0  0  0  0  0  0  0  0  0  0  0  0
    4.2588    0.4429   20.2328 H   0  0  0  0  0  0  0  0  0  0  0  0
    5.9588    2.0050   16.8686 H   0  0  0  0  0  0  0  0  0  0  0  0
    8.0861    1.0444   17.4104 H   0  0  0  0  0  0  0  0  0  0  0  0
  1  2  1  0  0  0  0
  1 20  1  0  0  0  0
  1 21  1  0  0  0  0
  2  3  2  0  0  0  0
  2 11  1  0  0  0  0
  3  4  1  0  0  0  0
  4  5  1  0  0  0  0
  4 22  1  0  0  0  0
  4 23  1  0  0  0  0
  5  6  2  0  0  0  0
  5 10  1  0  0  0  0
  6  7  1  0  0  0  0
  6 24  1  0  0  0  0
  7  8  2  0  0  0  0
  7 25  1  0  0  0  0
  8  9  1  0  0  0  0
  8 26  1  0  0  0  0
  9 10  2  0  0  0  0
  9 27  1  0  0  0  0
 10 28  1  0  0  0  0
 11 12  1  0  0  0  0
 11 29  1  0  0  0  0
 12 13  1  0  0  0  0
 12 30  1  0  0  0  0
 12 31  1  0  0  0  0
 13 14  1  0  0  0  0
 13 32  1  0  0  0  0
 13 33  1  0  0  0  0
 14 15  2  0  0  0  0
 14 19  1  0  0  0  0
 15 16  1  0  0  0  0
 15 34  1  0  0  0  0
 16 17  2  0  0  0  0
 16 35  1  0  0  0  0
 17 18  1  0  0  0  0
 18 19  2  0  0  0  0
 18 36  1  0  0  0  0
 19 37  1  0  0  0  0
M  END
>  <CHROM.1>
162.39336478,-68.90075208,139.46702987,166.03979652,-61.04975883,9.97113065
1.60936384,21.15539740,-0.42960577,0.54901274,-3.08744076

>  <Name>
NC(=NCc1ccccc1)NCCc1ccncc1

>  <RI>
0

>  <Rbt.Current_Directory>
/home/gse84885/github/im/docking-validation/targets/mpro/expts/jackall/work/Mpro-x0072_0/work/06/9b3582f8d135967e3a2ded1b6ca89e

>  <Rbt.Executable>
rbdock ($Id: //depot/dev/client3/rdock/2013.1/src/exe/rbdock.cxx#4 $)

>  <Rbt.Library>
libRbt.so (2013.1, Build901 2013/11/27)

>  <Rbt.Parameter_File>
/rDock_2013.1/data/scripts/dock.prm

>  <Rbt.Receptor>
docking-global.prm

>  <SCORE>
-12.7266

>  <SCORE.INTER>
-12.1596

>  <SCORE.INTER.CONST>
1

>  <SCORE.INTER.POLAR>
0

>  <SCORE.INTER.REPUL>
0.0160179

>  <SCORE.INTER.ROT>
5

>  <SCORE.INTER.VDW>
-22.6397

>  <SCORE.INTER.norm>
-0.639981

>  <SCORE.INTRA>
-0.566998

>  <SCORE.INTRA.DIHEDRAL>
-1.36177

>  <SCORE.INTRA.DIHEDRAL.0>
6.00919

>  <SCORE.INTRA.POLAR>
0

>  <SCORE.INTRA.POLAR.0>
0

>  <SCORE.INTRA.REPUL>
0

>  <SCORE.INTRA.REPUL.0>
0

>  <SCORE.INTRA.VDW>
0.113889

>  <SCORE.INTRA.VDW.0>
-1.02143

>  <SCORE.INTRA.norm>
-0.029842

>  <SCORE.RESTR>
0

>  <SCORE.RESTR.CAVITY>
0

>  <SCORE.RESTR.norm>
0

>  <SCORE.SYSTEM>
0

>  <SCORE.SYSTEM.CONST>
0

>  <SCORE.SYSTEM.DIHEDRAL>
0

>  <SCORE.SYSTEM.norm>
0

>  <SCORE.heavy>
19

>  <SCORE.norm>
-0.669823

>  <XChemDeepScore>
0.982500

>  <SuCOS_Max_Score>
0.42170065499305631

>  <SuCOS_Max_FeatureMap_Score>
0.16335951270293605

>  <SuCOS_Max_Protrude_Score>
0.6800417972831766

>  <SuCOS_Max_Index>
5

>  <SuCOS_Cum_Score>
1.7856683535357534

>  <SuCOS_Cum_FeatureMap_Score>
0.42662418546404152

>  <SuCOS_Cum_Protrude_Score>
3.1447125216074654

$$$$
