O=C(O)C(=O)C=CCCc1ccccc1
 OpenBabel03122003533D

 27 27  0  0  0  0  0  0  0  0999 V2000
   10.8312    0.2178   24.5937 O   0  0  0  0  0  0  0  0  0  0  0  0
   12.0944    0.3089   24.4782 C   0  0  0  0  0  0  0  0  0  0  0  0
   12.9336    0.4258   25.4317 O   0  0  0  0  0  0  0  0  0  0  0  0
   12.7025    0.2790   23.0572 C   0  0  0  0  0  0  0  0  0  0  0  0
   13.9106    0.4742   22.9288 O   0  0  0  0  0  0  0  0  0  0  0  0
   11.8051    0.0191   21.8938 C   0  0  0  0  0  0  0  0  0  0  0  0
   10.4913   -0.2004   22.0612 C   0  0  0  0  0  0  0  0  0  0  0  0
    9.5651   -0.4951   20.9186 C   0  0  0  0  0  0  0  0  0  0  0  0
    8.3935    0.4905   20.8424 C   0  0  0  0  0  0  0  0  0  0  0  0
    7.4177    0.0844   19.7626 C   0  0  0  0  0  0  0  0  0  0  0  0
    7.3084    0.8325   18.5826 C   0  0  0  0  0  0  0  0  0  0  0  0
    6.3612    0.4917   17.6155 C   0  0  0  0  0  0  0  0  0  0  0  0
    5.5139   -0.5959   17.8202 C   0  0  0  0  0  0  0  0  0  0  0  0
    5.6163   -1.3472   18.9895 C   0  0  0  0  0  0  0  0  0  0  0  0
    6.5633   -1.0086   19.9571 C   0  0  0  0  0  0  0  0  0  0  0  0
   13.8498    0.4862   25.2447 H   0  0  0  0  0  0  0  0  0  0  0  0
   12.2023    0.0079   20.9414 H   0  0  0  0  0  0  0  0  0  0  0  0
   10.1021   -0.1649   23.0163 H   0  0  0  0  0  0  0  0  0  0  0  0
    9.1743   -1.4837   21.0401 H   0  0  0  0  0  0  0  0  0  0  0  0
   10.1270   -0.4023   20.0128 H   0  0  0  0  0  0  0  0  0  0  0  0
    8.7711    1.4676   20.6241 H   0  0  0  0  0  0  0  0  0  0  0  0
    7.8833    0.4889   21.7829 H   0  0  0  0  0  0  0  0  0  0  0  0
    7.9319    1.6402   18.4277 H   0  0  0  0  0  0  0  0  0  0  0  0
    6.2882    1.0457   16.7479 H   0  0  0  0  0  0  0  0  0  0  0  0
    4.8113   -0.8446   17.1064 H   0  0  0  0  0  0  0  0  0  0  0  0
    4.9914   -2.1546   19.1400 H   0  0  0  0  0  0  0  0  0  0  0  0
    6.6346   -1.5673   20.8219 H   0  0  0  0  0  0  0  0  0  0  0  0
  1  2  2  0  0  0  0
  2  3  1  0  0  0  0
  2  4  1  0  0  0  0
  3 16  1  0  0  0  0
  4  5  2  0  0  0  0
  4  6  1  0  0  0  0
  6  7  2  0  0  0  0
  6 17  1  0  0  0  0
  7  8  1  0  0  0  0
  7 18  1  0  0  0  0
  8  9  1  0  0  0  0
  8 19  1  0  0  0  0
  8 20  1  0  0  0  0
  9 10  1  0  0  0  0
  9 21  1  0  0  0  0
  9 22  1  0  0  0  0
 10 11  2  0  0  0  0
 10 15  1  0  0  0  0
 11 12  1  0  0  0  0
 11 23  1  0  0  0  0
 12 13  2  0  0  0  0
 12 24  1  0  0  0  0
 13 14  1  0  0  0  0
 13 25  1  0  0  0  0
 14 15  2  0  0  0  0
 14 26  1  0  0  0  0
 15 27  1  0  0  0  0
M  END
>  <CHROM.1>
174.23161834,-0.65985332,-123.53767584,-174.69696142,-109.11394721,9.54744602
0.01155519,21.37547198,0.67896383,0.23352036,1.73915801

>  <Name>
O=C(O)C(=O)C=CCCc1ccccc1

>  <RI>
0

>  <Rbt.Current_Directory>
/home/gse84885/github/im/docking-validation/targets/mpro/expts/jackall/work/Mpro-x0072_0/work/bb/a39d37633b0b6cd63f7fe904ee3113

>  <Rbt.Executable>
rbdock ($Id: //depot/dev/client3/rdock/2013.1/src/exe/rbdock.cxx#4 $)

>  <Rbt.Library>
libRbt.so (2013.1, Build901 2013/11/27)

>  <Rbt.Parameter_File>
/rDock_2013.1/data/scripts/dock.prm

>  <Rbt.Receptor>
docking-global.prm

>  <SCORE>
-7.00883

>  <SCORE.INTER>
-7.70049

>  <SCORE.INTER.CONST>
1

>  <SCORE.INTER.POLAR>
0

>  <SCORE.INTER.REPUL>
0

>  <SCORE.INTER.ROT>
5

>  <SCORE.INTER.VDW>
-18.1005

>  <SCORE.INTER.norm>
-0.513366

>  <SCORE.INTRA>
0.691659

>  <SCORE.INTRA.DIHEDRAL>
-1.04179

>  <SCORE.INTRA.DIHEDRAL.0>
1.96945

>  <SCORE.INTRA.POLAR>
0

>  <SCORE.INTRA.POLAR.0>
0

>  <SCORE.INTRA.REPUL>
0

>  <SCORE.INTRA.REPUL.0>
0

>  <SCORE.INTRA.VDW>
1.21255

>  <SCORE.INTRA.VDW.0>
-0.597975

>  <SCORE.INTRA.norm>
0.0461106

>  <SCORE.RESTR>
0

>  <SCORE.RESTR.CAVITY>
0

>  <SCORE.RESTR.norm>
0

>  <SCORE.SYSTEM>
0

>  <SCORE.SYSTEM.CONST>
0

>  <SCORE.SYSTEM.DIHEDRAL>
0

>  <SCORE.SYSTEM.norm>
0

>  <SCORE.heavy>
15

>  <SCORE.norm>
-0.467255

>  <XChemDeepScore>
0.983799

>  <SuCOS_Max_Score>
0.38170059057382433

>  <SuCOS_Max_FeatureMap_Score>
0.066596002613507954

>  <SuCOS_Max_Protrude_Score>
0.6968051785341407

>  <SuCOS_Max_Index>
5

>  <SuCOS_Cum_Score>
1.631135350270225

>  <SuCOS_Cum_FeatureMap_Score>
0.38881165705896947

>  <SuCOS_Cum_Protrude_Score>
2.8734590434814806

$$$$
