CC(CCc1ccc(S(N)(=O)=O)cc1)C(=O)O
 OpenBabel03122003533D

 32 32  0  0  0  0  0  0  0  0999 V2000
   12.4195    0.2727   22.4946 C   0  0  0  0  0  0  0  0  0  0  0  0
   11.5425    1.4915   22.2044 C   0  0  1  0  0  0  0  0  0  0  0  0
   10.3535    1.6194   23.1835 C   0  0  0  0  0  0  0  0  0  0  0  0
    9.3251    0.4900   23.0376 C   0  0  0  0  0  0  0  0  0  0  0  0
    8.5379    0.5145   21.7462 C   0  0  0  0  0  0  0  0  0  0  0  0
    8.9907   -0.2079   20.6302 C   0  0  0  0  0  0  0  0  0  0  0  0
    8.2272   -0.2637   19.4614 C   0  0  0  0  0  0  0  0  0  0  0  0
    7.0059    0.4093   19.4036 C   0  0  0  0  0  0  0  0  0  0  0  0
    6.0158    0.2848   17.8878 S   0  0  0  0  0  0  0  0  0  0  0  0
    4.5078    0.5324   18.3217 N   0  0  0  0  0  0  0  0  0  0  0  0
    6.5573    1.3375   17.0373 O   0  0  0  0  0  0  0  0  0  0  0  0
    6.3028   -1.0774   17.4407 O   0  0  0  0  0  0  0  0  0  0  0  0
    6.5512    1.1556   20.4911 C   0  0  0  0  0  0  0  0  0  0  0  0
    7.3202    1.2080   21.6600 C   0  0  0  0  0  0  0  0  0  0  0  0
   12.3372    2.8156   22.1501 C   0  0  0  0  0  0  0  0  0  0  0  0
   12.8663    3.1934   23.2344 O   0  0  0  0  0  0  0  0  0  0  0  0
   12.3922    3.3603   21.0123 O   0  0  0  0  0  0  0  0  0  0  0  0
   11.8109   -0.6070   22.5186 H   0  0  0  0  0  0  0  0  0  0  0  0
   12.9026    0.3981   23.4410 H   0  0  0  0  0  0  0  0  0  0  0  0
   13.1586    0.1742   21.7272 H   0  0  0  0  0  0  0  0  0  0  0  0
   11.1472    1.3144   21.2260 H   0  0  0  0  0  0  0  0  0  0  0  0
    9.8620    2.5523   23.0014 H   0  0  0  0  0  0  0  0  0  0  0  0
   10.7510    1.5609   24.1752 H   0  0  0  0  0  0  0  0  0  0  0  0
    8.6335    0.5620   23.8509 H   0  0  0  0  0  0  0  0  0  0  0  0
    9.8796   -0.4251   23.0360 H   0  0  0  0  0  0  0  0  0  0  0  0
    9.8957   -0.7020   20.6738 H   0  0  0  0  0  0  0  0  0  0  0  0
    8.5642   -0.7991   18.6461 H   0  0  0  0  0  0  0  0  0  0  0  0
    4.3940    1.5018   18.6180 H   0  0  0  0  0  0  0  0  0  0  0  0
    4.2699   -0.0894   19.0944 H   0  0  0  0  0  0  0  0  0  0  0  0
    5.6554    1.6649   20.4345 H   0  0  0  0  0  0  0  0  0  0  0  0
    6.9889    1.7615   22.4656 H   0  0  0  0  0  0  0  0  0  0  0  0
   11.9489    2.9708   20.2845 H   0  0  0  0  0  0  0  0  0  0  0  0
  1 18  1  0  0  0  0
  1 19  1  0  0  0  0
  1 20  1  0  0  0  0
  2  1  1  0  0  0  0
  2  3  1  0  0  0  0
  2 15  1  0  0  0  0
  2 21  1  6  0  0  0
  3  4  1  0  0  0  0
  3 22  1  0  0  0  0
  3 23  1  0  0  0  0
  4  5  1  0  0  0  0
  4 24  1  0  0  0  0
  4 25  1  0  0  0  0
  5  6  2  0  0  0  0
  5 14  1  0  0  0  0
  6  7  1  0  0  0  0
  6 26  1  0  0  0  0
  7  8  2  0  0  0  0
  7 27  1  0  0  0  0
  8  9  1  0  0  0  0
  8 13  1  0  0  0  0
  9 10  1  0  0  0  0
  9 11  2  0  0  0  0
  9 12  2  0  0  0  0
 10 28  1  0  0  0  0
 10 29  1  0  0  0  0
 13 14  2  0  0  0  0
 13 30  1  0  0  0  0
 14 31  1  0  0  0  0
 15 16  2  0  0  0  0
 15 17  1  0  0  0  0
 17 32  1  0  0  0  0
M  END
>  <CHROM.1>
-66.57804447,-65.75438582,-68.63743217,92.04817401,154.50337527,8.72475676
0.97631738,20.43523784,0.49474529,0.48954487,1.89257033

>  <Name>
CC(CCc1ccc(S(N)(=O)=O)cc1)C(=O)O

>  <RI>
0

>  <Rbt.Current_Directory>
/home/gse84885/github/im/docking-validation/targets/mpro/expts/jackall/work/Mpro-x0072_0/work/e3/c1812550620eb48490c2a9c69a9f75

>  <Rbt.Executable>
rbdock ($Id: //depot/dev/client3/rdock/2013.1/src/exe/rbdock.cxx#4 $)

>  <Rbt.Library>
libRbt.so (2013.1, Build901 2013/11/27)

>  <Rbt.Parameter_File>
/rDock_2013.1/data/scripts/dock.prm

>  <Rbt.Receptor>
docking-global.prm

>  <SCORE>
-8.79268

>  <SCORE.INTER>
-7.03068

>  <SCORE.INTER.CONST>
1

>  <SCORE.INTER.POLAR>
0

>  <SCORE.INTER.REPUL>
0.000735409

>  <SCORE.INTER.ROT>
5

>  <SCORE.INTER.VDW>
-17.4344

>  <SCORE.INTER.norm>
-0.41357

>  <SCORE.INTRA>
-1.762

>  <SCORE.INTRA.DIHEDRAL>
0.364015

>  <SCORE.INTRA.DIHEDRAL.0>
5.41566

>  <SCORE.INTRA.POLAR>
0

>  <SCORE.INTRA.POLAR.0>
0

>  <SCORE.INTRA.REPUL>
0

>  <SCORE.INTRA.REPUL.0>
0

>  <SCORE.INTRA.VDW>
-1.94401

>  <SCORE.INTRA.VDW.0>
1.01313

>  <SCORE.INTRA.norm>
-0.103647

>  <SCORE.RESTR>
0

>  <SCORE.RESTR.CAVITY>
0

>  <SCORE.RESTR.norm>
0

>  <SCORE.SYSTEM>
0

>  <SCORE.SYSTEM.CONST>
0

>  <SCORE.SYSTEM.DIHEDRAL>
0

>  <SCORE.SYSTEM.norm>
0

>  <SCORE.heavy>
17

>  <SCORE.norm>
-0.517217

>  <XChemDeepScore>
0.989841

>  <SuCOS_Max_Score>
0.34785795150104931

>  <SuCOS_Max_FeatureMap_Score>
0.1205551312979186

>  <SuCOS_Max_Protrude_Score>
0.57516077170418001

>  <SuCOS_Max_Index>
6

>  <SuCOS_Cum_Score>
1.3884654272285151

>  <SuCOS_Cum_FeatureMap_Score>
0.23401717917321124

>  <SuCOS_Cum_Protrude_Score>
2.5429136752838186

$$$$
