COC(=O)C(N)C(C)(C)c1ccc(S(N)(=O)=O)cc1
 OpenBabel03122003513D

 19 19  0  0  0  0  0  0  0  0999 V2000
    8.9432   -0.4223   27.0055 C   0  0  0  0  0  0  0  0  0  0  0  0
    9.8506   -1.1118   26.1460 O   0  0  0  0  0  0  0  0  0  0  0  0
    9.9765   -0.5774   24.8953 C   0  0  0  0  0  0  0  0  0  0  0  0
    9.3516    0.3935   24.4895 O   0  0  0  0  0  0  0  0  0  0  0  0
   11.0062   -1.3639   24.0523 C   0  0  1  0  0  0  0  0  0  0  0  0
   10.6210   -2.8052   23.9687 N   0  0  0  0  0  0  0  0  0  0  0  0
   11.3231   -0.7275   22.6430 C   0  0  0  0  0  0  0  0  0  0  0  0
   12.4483   -1.5310   21.9437 C   0  0  0  0  0  0  0  0  0  0  0  0
   10.0561   -0.9313   21.7582 C   0  0  0  0  0  0  0  0  0  0  0  0
   11.7397    0.7620   22.7119 C   0  0  0  0  0  0  0  0  0  0  0  0
   11.4887    1.6374   21.6342 C   0  0  0  0  0  0  0  0  0  0  0  0
   11.9144    2.9691   21.6533 C   0  0  0  0  0  0  0  0  0  0  0  0
   12.5552    3.4668   22.7822 C   0  0  0  0  0  0  0  0  0  0  0  0
   13.1137    5.1863   22.7817 S   0  0  0  0  0  0  0  0  0  0  0  0
   12.4005    5.8748   24.0220 N   0  0  0  0  0  0  0  0  0  0  0  0
   14.5613    5.0679   22.9271 O   0  0  0  0  0  0  0  0  0  0  0  0
   12.6590    5.6508   21.4744 O   0  0  0  0  0  0  0  0  0  0  0  0
   12.7715    2.6538   23.8868 C   0  0  0  0  0  0  0  0  0  0  0  0
   12.3697    1.3146   23.8460 C   0  0  0  0  0  0  0  0  0  0  0  0
  1  2  1  0  0  0  0
  2  3  1  0  0  0  0
  3  4  2  0  0  0  0
  3  5  1  0  0  0  0
  5  6  1  6  0  0  0
  5  7  1  0  0  0  0
  7  8  1  0  0  0  0
  7  9  1  0  0  0  0
  7 10  1  0  0  0  0
 10 11  2  0  0  0  0
 10 19  1  0  0  0  0
 11 12  1  0  0  0  0
 12 13  2  0  0  0  0
 13 14  1  0  0  0  0
 13 18  1  0  0  0  0
 14 15  1  0  0  0  0
 14 16  2  0  0  0  0
 14 17  2  0  0  0  0
 18 19  2  0  0  0  0
M  END
>  <CHROM.1>
-1.97054657,56.95302948,175.26862269,-151.43125903,122.33023436,11.62302158
1.61132676,23.38428884,2.50216388,-1.04267948,-2.55807996

>  <Name>
COC(=O)C(N)C(C)(C)c1ccc(S(N)(=O)=O)cc1

>  <RI>
0

>  <Rbt.Current_Directory>
/home/gse84885/github/im/docking-validation/targets/mpro/expts/jackall/work/Mpro-x0072_0/work/60/92a408fda7e1d67ebdf2a5b4113914

>  <Rbt.Executable>
rbdock ($Id: //depot/dev/client3/rdock/2013.1/src/exe/rbdock.cxx#4 $)

>  <Rbt.Library>
libRbt.so (2013.1, Build901 2013/11/27)

>  <Rbt.Parameter_File>
/rDock_2013.1/data/scripts/dock.prm

>  <Rbt.Receptor>
docking-global.prm

>  <SCORE>
-8.93176

>  <SCORE.INTER>
-8.28973

>  <SCORE.INTER.CONST>
1

>  <SCORE.INTER.POLAR>
0

>  <SCORE.INTER.REPUL>
0.136253

>  <SCORE.INTER.ROT>
5

>  <SCORE.INTER.VDW>
-19.371

>  <SCORE.INTER.norm>
-0.436301

>  <SCORE.INTRA>
-0.66636

>  <SCORE.INTRA.DIHEDRAL>
-1.38513

>  <SCORE.INTRA.DIHEDRAL.0>
4.48392

>  <SCORE.INTRA.POLAR>
0

>  <SCORE.INTRA.POLAR.0>
0

>  <SCORE.INTRA.REPUL>
0

>  <SCORE.INTRA.REPUL.0>
0

>  <SCORE.INTRA.VDW>
0.0262031

>  <SCORE.INTRA.VDW.0>
1.61638

>  <SCORE.INTRA.norm>
-0.0350716

>  <SCORE.RESTR>
0.0243268

>  <SCORE.RESTR.CAVITY>
0.0243268

>  <SCORE.RESTR.norm>
0.00128036

>  <SCORE.SYSTEM>
0

>  <SCORE.SYSTEM.CONST>
0

>  <SCORE.SYSTEM.DIHEDRAL>
0

>  <SCORE.SYSTEM.norm>
0

>  <SCORE.heavy>
19

>  <SCORE.norm>
-0.470093

>  <XChemDeepScore>
0.969705

>  <SuCOS_Max_Score>
0.46076465187157833

>  <SuCOS_Max_FeatureMap_Score>
0.28830983320515507

>  <SuCOS_Max_Protrude_Score>
0.63321947053800165

>  <SuCOS_Max_Index>
3

>  <SuCOS_Cum_Score>
2.3424169367759538

>  <SuCOS_Cum_FeatureMap_Score>
0.8935722449537955

>  <SuCOS_Cum_Protrude_Score>
3.7912616285981127

$$$$
