CC(CCc1cccnc1)C(=O)c1ccccc1
 OpenBabel03122003533D

 35 36  0  0  0  0  0  0  0  0999 V2000
   11.5529    0.5697   22.3500 C   0  0  0  0  0  0  0  0  0  0  0  0
   10.6311    1.6303   21.7397 C   0  0  1  0  0  0  0  0  0  0  0  0
    9.2463    0.9816   21.4918 C   0  0  0  0  0  0  0  0  0  0  0  0
    9.2347   -0.0960   20.4004 C   0  0  0  0  0  0  0  0  0  0  0  0
    7.8434   -0.6181   20.1369 C   0  0  0  0  0  0  0  0  0  0  0  0
    7.1946   -0.3743   18.9222 C   0  0  0  0  0  0  0  0  0  0  0  0
    5.9171   -0.8817   18.7035 C   0  0  0  0  0  0  0  0  0  0  0  0
    5.3196   -1.6131   19.7160 C   0  0  0  0  0  0  0  0  0  0  0  0
    5.9039   -1.8565   20.9088 N   0  0  0  0  0  0  0  0  0  0  0  0
    7.1462   -1.3530   21.0916 C   0  0  0  0  0  0  0  0  0  0  0  0
   10.5295    2.8325   22.6817 C   0  0  0  0  0  0  0  0  0  0  0  0
    9.5464    3.0031   23.4030 O   0  0  0  0  0  0  0  0  0  0  0  0
   11.6299    3.8478   22.7291 C   0  0  0  0  0  0  0  0  0  0  0  0
   12.6665    3.7337   21.7901 C   0  0  0  0  0  0  0  0  0  0  0  0
   13.7000    4.6722   21.7532 C   0  0  0  0  0  0  0  0  0  0  0  0
   13.6971    5.7467   22.6390 C   0  0  0  0  0  0  0  0  0  0  0  0
   12.6724    5.8700   23.5750 C   0  0  0  0  0  0  0  0  0  0  0  0
   11.6498    4.9166   23.6334 C   0  0  0  0  0  0  0  0  0  0  0  0
   11.6203   -0.2680   21.6877 H   0  0  0  0  0  0  0  0  0  0  0  0
   11.1550    0.2498   23.2904 H   0  0  0  0  0  0  0  0  0  0  0  0
   12.5272    0.9865   22.4982 H   0  0  0  0  0  0  0  0  0  0  0  0
   11.0220    1.9853   20.8090 H   0  0  0  0  0  0  0  0  0  0  0  0
    8.5620    1.7532   21.2068 H   0  0  0  0  0  0  0  0  0  0  0  0
    8.9711    0.4940   22.4036 H   0  0  0  0  0  0  0  0  0  0  0  0
    9.8559   -0.9097   20.7116 H   0  0  0  0  0  0  0  0  0  0  0  0
    9.5992    0.3451   19.4962 H   0  0  0  0  0  0  0  0  0  0  0  0
    7.6624    0.1811   18.1889 H   0  0  0  0  0  0  0  0  0  0  0  0
    5.4279   -0.7170   17.8098 H   0  0  0  0  0  0  0  0  0  0  0  0
    4.3748   -1.9935   19.5498 H   0  0  0  0  0  0  0  0  0  0  0  0
    7.6074   -1.5251   21.9986 H   0  0  0  0  0  0  0  0  0  0  0  0
   12.6651    2.9486   21.1203 H   0  0  0  0  0  0  0  0  0  0  0  0
   14.4660    4.5694   21.0693 H   0  0  0  0  0  0  0  0  0  0  0  0
   14.4518    6.4497   22.6023 H   0  0  0  0  0  0  0  0  0  0  0  0
   12.6676    6.6686   24.2286 H   0  0  0  0  0  0  0  0  0  0  0  0
   10.9077    5.0015   24.3455 H   0  0  0  0  0  0  0  0  0  0  0  0
  1 19  1  0  0  0  0
  1 20  1  0  0  0  0
  1 21  1  0  0  0  0
  2  1  1  0  0  0  0
  2  3  1  0  0  0  0
  2 11  1  0  0  0  0
  2 22  1  6  0  0  0
  3  4  1  0  0  0  0
  3 23  1  0  0  0  0
  3 24  1  0  0  0  0
  4  5  1  0  0  0  0
  4 25  1  0  0  0  0
  4 26  1  0  0  0  0
  5  6  2  0  0  0  0
  5 10  1  0  0  0  0
  6  7  1  0  0  0  0
  6 27  1  0  0  0  0
  7  8  2  0  0  0  0
  7 28  1  0  0  0  0
  8  9  1  0  0  0  0
  8 29  1  0  0  0  0
  9 10  2  0  0  0  0
 10 30  1  0  0  0  0
 11 12  2  0  0  0  0
 11 13  1  0  0  0  0
 13 14  2  0  0  0  0
 13 18  1  0  0  0  0
 14 15  1  0  0  0  0
 14 31  1  0  0  0  0
 15 16  2  0  0  0  0
 15 32  1  0  0  0  0
 16 17  1  0  0  0  0
 16 33  1  0  0  0  0
 17 18  2  0  0  0  0
 17 34  1  0  0  0  0
 18 35  1  0  0  0  0
M  END
>  <CHROM.1>
-67.72917339,-101.94993634,-175.88429382,112.61011437,6.72003669,9.77094811
1.69976908,21.55553748,-0.70742892,-0.46648821,-2.20333091

>  <Name>
CC(CCc1cccnc1)C(=O)c1ccccc1

>  <RI>
0

>  <Rbt.Current_Directory>
/home/gse84885/github/im/docking-validation/targets/mpro/expts/jackall/work/Mpro-x0072_0/work/f7/5ee94e609120b687454cd098917d2d

>  <Rbt.Executable>
rbdock ($Id: //depot/dev/client3/rdock/2013.1/src/exe/rbdock.cxx#4 $)

>  <Rbt.Library>
libRbt.so (2013.1, Build901 2013/11/27)

>  <Rbt.Parameter_File>
/rDock_2013.1/data/scripts/dock.prm

>  <Rbt.Receptor>
docking-global.prm

>  <SCORE>
-9.75603

>  <SCORE.INTER>
-9.73604

>  <SCORE.INTER.CONST>
1

>  <SCORE.INTER.POLAR>
0

>  <SCORE.INTER.REPUL>
0

>  <SCORE.INTER.ROT>
5

>  <SCORE.INTER.VDW>
-20.136

>  <SCORE.INTER.norm>
-0.540891

>  <SCORE.INTRA>
-0.0199898

>  <SCORE.INTRA.DIHEDRAL>
-2.86996

>  <SCORE.INTRA.DIHEDRAL.0>
5.29084

>  <SCORE.INTRA.POLAR>
0

>  <SCORE.INTRA.POLAR.0>
0

>  <SCORE.INTRA.REPUL>
0

>  <SCORE.INTRA.REPUL.0>
0

>  <SCORE.INTRA.VDW>
1.41499

>  <SCORE.INTRA.VDW.0>
-0.759359

>  <SCORE.INTRA.norm>
-0.00111054

>  <SCORE.RESTR>
0

>  <SCORE.RESTR.CAVITY>
0

>  <SCORE.RESTR.norm>
0

>  <SCORE.SYSTEM>
0

>  <SCORE.SYSTEM.CONST>
0

>  <SCORE.SYSTEM.DIHEDRAL>
0

>  <SCORE.SYSTEM.norm>
0

>  <SCORE.heavy>
18

>  <SCORE.norm>
-0.542002

>  <XChemDeepScore>
0.978047

>  <SuCOS_Max_Score>
0.21515022061476233

>  <SuCOS_Max_FeatureMap_Score>
0.0025052479170899942

>  <SuCOS_Max_Protrude_Score>
0.42779519331243465

>  <SuCOS_Max_Index>
5

>  <SuCOS_Cum_Score>
1.1198580200988486

>  <SuCOS_Cum_FeatureMap_Score>
0.098068019128469075

>  <SuCOS_Cum_Protrude_Score>
2.1416480210692281

$$$$
