COC(=O)c1ccc(CS(=O)(=O)F)cc1
 OpenBabel03122003533D

 24 24  0  0  0  0  0  0  0  0999 V2000
    9.9190   -4.6677   24.9554 C   0  0  0  0  0  0  0  0  0  0  0  0
    9.0616   -3.9718   24.0484 O   0  0  0  0  0  0  0  0  0  0  0  0
    9.6914   -3.0375   23.2936 C   0  0  0  0  0  0  0  0  0  0  0  0
   10.8870   -2.7896   23.3119 O   0  0  0  0  0  0  0  0  0  0  0  0
    8.7199   -2.3283   22.4150 C   0  0  0  0  0  0  0  0  0  0  0  0
    7.3874   -2.7589   22.4194 C   0  0  0  0  0  0  0  0  0  0  0  0
    6.4376   -2.1368   21.6038 C   0  0  0  0  0  0  0  0  0  0  0  0
    6.8045   -1.0738   20.7665 C   0  0  0  0  0  0  0  0  0  0  0  0
    5.7855   -0.4261   19.8661 C   0  0  0  0  0  0  0  0  0  0  0  0
    6.1383   -0.7889   18.1590 S   0  0  0  0  0  0  0  0  0  0  0  0
    5.1627   -0.1311   17.3121 O   0  0  0  0  0  0  0  0  0  0  0  0
    7.5602   -0.6013   17.9447 O   0  0  0  0  0  0  0  0  0  0  0  0
    5.8963   -2.3453   17.9616 F   0  0  0  0  0  0  0  0  0  0  0  0
    8.1380   -0.6385   20.7706 C   0  0  0  0  0  0  0  0  0  0  0  0
    9.0895   -1.2620   21.5861 C   0  0  0  0  0  0  0  0  0  0  0  0
    9.3472   -5.3825   25.5095 H   0  0  0  0  0  0  0  0  0  0  0  0
   10.3667   -3.9686   25.6305 H   0  0  0  0  0  0  0  0  0  0  0  0
   10.6851   -5.1731   24.4054 H   0  0  0  0  0  0  0  0  0  0  0  0
    7.1043   -3.5416   23.0295 H   0  0  0  0  0  0  0  0  0  0  0  0
    5.4585   -2.4626   21.6182 H   0  0  0  0  0  0  0  0  0  0  0  0
    5.8095    0.6335   20.0128 H   0  0  0  0  0  0  0  0  0  0  0  0
    4.8169   -0.8111   20.1078 H   0  0  0  0  0  0  0  0  0  0  0  0
    8.4203    0.1491   20.1665 H   0  0  0  0  0  0  0  0  0  0  0  0
   10.0680   -0.9343   21.5764 H   0  0  0  0  0  0  0  0  0  0  0  0
  1  2  1  0  0  0  0
  1 16  1  0  0  0  0
  1 17  1  0  0  0  0
  1 18  1  0  0  0  0
  2  3  1  0  0  0  0
  3  4  2  0  0  0  0
  3  5  1  0  0  0  0
  5  6  2  0  0  0  0
  5 15  1  0  0  0  0
  6  7  1  0  0  0  0
  6 19  1  0  0  0  0
  7  8  2  0  0  0  0
  7 20  1  0  0  0  0
  8  9  1  0  0  0  0
  8 14  1  0  0  0  0
  9 10  1  0  0  0  0
  9 21  1  0  0  0  0
  9 22  1  0  0  0  0
 10 11  2  0  0  0  0
 10 12  2  0  0  0  0
 10 13  1  0  0  0  0
 14 15  2  0  0  0  0
 14 23  1  0  0  0  0
 15 24  1  0  0  0  0
M  END
>  <CHROM.1>
1.97717140,-4.12055787,-111.20625729,-178.74041019,7.61740107,-1.85906823
20.76469910,1.00616651,0.36107844,2.22978122

>  <Name>
COC(=O)c1ccc(CS(=O)(=O)F)cc1

>  <RI>
0

>  <Rbt.Current_Directory>
/home/gse84885/github/im/docking-validation/targets/mpro/expts/jackall/work/Mpro-x0072_0/work/f7/2ee8bdfa6d827175e6dc29e33996aa

>  <Rbt.Executable>
rbdock ($Id: //depot/dev/client3/rdock/2013.1/src/exe/rbdock.cxx#4 $)

>  <Rbt.Library>
libRbt.so (2013.1, Build901 2013/11/27)

>  <Rbt.Parameter_File>
/rDock_2013.1/data/scripts/dock.prm

>  <Rbt.Receptor>
docking-global.prm

>  <SCORE>
-5.00879

>  <SCORE.INTER>
-5.5779

>  <SCORE.INTER.CONST>
1

>  <SCORE.INTER.POLAR>
0

>  <SCORE.INTER.REPUL>
0

>  <SCORE.INTER.ROT>
4

>  <SCORE.INTER.VDW>
-14.9779

>  <SCORE.INTER.norm>
-0.37186

>  <SCORE.INTRA>
0.569111

>  <SCORE.INTRA.DIHEDRAL>
-0.0488787

>  <SCORE.INTRA.DIHEDRAL.0>
1.08104

>  <SCORE.INTRA.POLAR>
0

>  <SCORE.INTRA.POLAR.0>
0

>  <SCORE.INTRA.REPUL>
0

>  <SCORE.INTRA.REPUL.0>
0

>  <SCORE.INTRA.VDW>
0.593551

>  <SCORE.INTRA.VDW.0>
0.665572

>  <SCORE.INTRA.norm>
0.0379407

>  <SCORE.RESTR>
0

>  <SCORE.RESTR.CAVITY>
0

>  <SCORE.RESTR.norm>
0

>  <SCORE.SYSTEM>
0

>  <SCORE.SYSTEM.CONST>
0

>  <SCORE.SYSTEM.DIHEDRAL>
0

>  <SCORE.SYSTEM.norm>
0

>  <SCORE.heavy>
15

>  <SCORE.norm>
-0.33392

>  <XChemDeepScore>
0.966850

>  <SuCOS_Max_Score>
0.21625215519082419

>  <SuCOS_Max_FeatureMap_Score>
0.022124985663015573

>  <SuCOS_Max_Protrude_Score>
0.41037932471863281

>  <SuCOS_Max_Index>
5

>  <SuCOS_Cum_Score>
0.74147062447502488

>  <SuCOS_Cum_FeatureMap_Score>
0.11217912636714508

>  <SuCOS_Cum_Protrude_Score>
1.3707621225829048

$$$$
